Circuit: * Z:\home\ostoja\Elektronika\LNWB_BJT\001_centered_supply.asc

Direct Newton iteration failed to find .op point.  (Use ".option noopiter" to skip.)
Starting Gmin stepping
Gmin = 10
Gmin = 1.07374
Gmin = 0.115292
Gmin = 0.0123794
Gmin = 0.00132923
vernier = 0.5
vernier = 0.25
vernier = 0.125
vernier = 0.0625
Gmin = 0.00100083
vernier = 0.03125
vernier = 0.015625
vernier = 0.0078125
vernier = 0.00390625
vernier = 0.00195313
Gmin = 0.00100083
vernier = 0.000976563
vernier = 0.000488281
Gmin = 0
Gmin stepping failed

Starting source stepping with srcstepmethod=0
Source Step = 3.0303%
Source Step = 33.3333%
Source Step = 63.6364%
Source Step = 93.9394%
Source stepping succeeded in finding the operating point.

Heightened Def Con from 7.85335e-005 to 7.85335e-005

Date: Sat Nov 23 14:35:36 2024
Total elapsed time: 1.487 seconds.

tnom = 27
temp = 27
method = modified trap
totiter = 133943
traniter = 131985
tranpoints = 59710
accept = 37709
rejected = 22002
matrix size = 119
fillins = 112
solver = Normal
Thread vector: 5.3/4.1[3] 3.0/1.9[3] 1.4/1.3[1] 0.2/0.8[1]  2592/500
Matrix Compiler1: 12.15 KB object code size  1.6/0.7/[0.5]
Matrix Compiler2: 12.46 KB object code size  0.8/0.9/[0.6]

