Circuit: * Z:\home\ostoja\Elektronika\LNWB_BJT\002_centered_supply.asc

WARNING: Less than two connections to node NC_01.  This node is used by Q1.
Direct Newton iteration failed to find .op point.  (Use ".option noopiter" to skip.)
Starting Gmin stepping
Gmin = 10
Gmin = 1.07374
Gmin = 0.115292
Gmin = 0.0123794
Gmin = 0.00132923
Gmin = 0.000142725
Gmin = 1.5325e-005
Gmin = 1.6455e-006
Gmin = 1.76685e-007
Gmin = 1.89714e-008
Gmin = 2.03704e-009
Gmin = 2.18725e-010
Gmin = 2.34854e-011
Gmin = 2.52173e-012
Gmin = 2.70769e-013
Gmin = 0
Gmin stepping succeeded in finding the operating point.


Date: Sun Nov 24 12:53:42 2024
Total elapsed time: 0.750 seconds.

tnom = 27
temp = 27
method = modified trap
totiter = 81496
traniter = 81075
tranpoints = 40538
accept = 27782
rejected = 12756
matrix size = 62
fillins = 23
solver = Normal
Thread vector: 4.2/3.5[2] 1.5/1.6[1] 0.9/1.2[1] 0.1/0.7[1]  2592/500
Matrix Compiler1: 4.62 KB object code size  0.7/0.3/[0.3]
Matrix Compiler2: 6.10 KB object code size  0.4/0.5/[0.3]

