Circuit: * Z:\home\ostoja\Elektronika\LNWB_BJT\102_caps.asc

WARNING: Less than two connections to node GATE_B.  This node is used by V1.
WARNING: Less than two connections to node GATE_A.  This node is used by V2.
Direct Newton iteration for .op point succeeded.
Heightened Def Con from 0.036045 to 0.036045

Date: Mon Dec 02 17:15:35 2024
Total elapsed time: 5.962 seconds.

tnom = 27
temp = 27
method = modified trap
totiter = 2290026
traniter = 2289989
tranpoints = 1145000
accept = 892863
rejected = 252138
matrix size = 36
fillins = 0
solver = Normal
Matrix Compiler1: 1.93 KB object code size  0.3/0.2/[0.2]
Matrix Compiler2: 2.56 KB object code size  0.2/0.3/[0.1]

