Circuit: * Z:\home\ostoja\Elektronika\LNWB_BJT\201_bandwidth_sim.asc

Unknown node in .ic card: "m1" -- ignoring
WARNING: Less than two connections to node -15V.  This node is used by V2.
WARNING: Less than two connections to node N013.  This node is used by B3.
Direct Newton iteration failed to find .op point.  (Use ".option noopiter" to skip.)
Starting Gmin stepping
Gmin = 10
vernier = 0.5
vernier = 0.25
Gmin = 6.56452
vernier = 0.333333
vernier = 0.444444
Gmin = 2.66441
vernier = 0.592592
vernier = 0.790123
Gmin = 0.656939
vernier = 1
Gmin = 0.0837371
Gmin = 0.00899121
Gmin = 0.000965423
vernier = 0.5
vernier = 0.25
vernier = 0.125
vernier = 0.0625
Gmin = 0.000994061
vernier = 0.03125
vernier = 0.015625
vernier = 0.0078125
vernier = 0.00390625
Gmin = 0.000999813
vernier = 0.00195313
vernier = 0.000976563
vernier = 0.000488281
Gmin = 0
Gmin stepping failed

Starting source stepping with srcstepmethod=0
Source Step = 3.0303%
Source Step = 33.3333%
Source Step = 44.697%
Source Step = 52.2727%
Source Step = 59.8485%
Source Step = 67.4242%
Source Step = 75%
vernier = 0.375
Source Step = 84.8485%
Source Step = 96.2121%
Source stepping succeeded in finding the operating point.

Heightened Def Con from 2.11615e-005 to 2.11615e-005

Date: Mon Dec 09 18:17:53 2024
Total elapsed time: 0.840 seconds.

tnom = 27
temp = 27
method = modified trap
totiter = 39137
traniter = 36448
tranpoints = 16973
accept = 10192
rejected = 6782
matrix size = 159
fillins = 224
solver = Normal
Thread vector: 7.6/3.6[5] 4.5/2.7[5] 3.4/2.2[5] 0.4/0.9[1]  2592/500
Matrix Compiler1:    1553 opcodes  3.1/[1.3]/1.5
Matrix Compiler2: 18.37 KB object code size  1.0/1.1/[0.8]

