Circuit: * Z:\home\ostoja\Elektronika\LNWB_BJT\202_bandwidth_sim.asc

Direct Newton iteration failed to find .op point.  (Use ".option noopiter" to skip.)
Starting Gmin stepping
Gmin = 10
Gmin = 1.07374
Gmin = 0.115292
Gmin = 0.0123794
Gmin = 0.00132923
vernier = 0.5
vernier = 0.25
vernier = 0.125
vernier = 0.0625
Gmin = 0.00100083
vernier = 0.03125
vernier = 0.015625
vernier = 0.0078125
vernier = 0.00390625
vernier = 0.00195313
Gmin = 0.00100083
vernier = 0.000976563
vernier = 0.000488281
Gmin = 0
Gmin stepping failed

Starting source stepping with srcstepmethod=0
Source Step = 3.0303%
Source Step = 13.3049%
Source Step = 13.7784%
Source Step = 14.2519%
Source Step = 14.7254%
Source Step = 15.1989%
Source Step = 15.6723%
vernier = 0.0234375
Source Step = 16.3826%
Source Step = 17.0928%
Source Step = 17.803%
Source Step = 18.5133%
Source Step = 19.2235%
vernier = 0.0351563
Source Step = 20.2533%
Source Step = 21.3187%
Source Step = 22.384%
Source Step = 23.4493%
Source Step = 24.5147%
vernier = 0.0527344
Source Step = 26.0062%
Source Step = 27.6042%
Source Step = 29.2022%
Source Step = 30.8002%
Source Step = 32.3982%
vernier = 0.0791016
Source Step = 34.5555%
Source Step = 36.9525%
Source Step = 39.3496%
Source Step = 41.7466%
Source Step = 44.1436%
vernier = 0.118652
Source Step = 47.2597%
Source Step = 50.8552%
Source Step = 54.4508%
Source Step = 58.0463%
Source Step = 61.6418%
vernier = 0.177979
Source Step = 66.1362%
Source Step = 71.5295%
Source Step = 76.9228%
vernier = 0.0444946
Source Step = 77.7318%
Source Step = 79.0801%
Source Step = 80.4284%
Source Step = 81.7768%
Source Step = 83.1251%
vernier = 0.0667419
Source Step = 85.0801%
Source Step = 87.1026%
Source Step = 89.1251%
Source Step = 91.1476%
Source Step = 93.1701%
vernier = 0.100113
Source Step = 96.0015%
Source Step = 99.0353%
Source stepping succeeded in finding the operating point.


Date: Sat Nov 30 12:41:34 2024
Total elapsed time: 0.776 seconds.

tnom = 27
temp = 27
method = trap
totiter = 4508
traniter = 0
tranpoints = 0
accept = 0
rejected = 0
matrix size = 374
fillins = 437
solver = Normal
Matrix Compiler1:    1990 opcodes
Matrix Compiler2: 38.40 KB object code size  2.7/2.7/[1.5]

