Circuit: * Z:\home\ostoja\Elektronika\LNWB_BJT\301_servo.asc

Unknown node in .ic card: "m1" -- ignoring
WARNING: Less than two connections to node -15V.  This node is used by V2.
WARNING: Less than two connections to node N016.  This node is used by B3.
Direct Newton iteration failed to find .op point.  (Use ".option noopiter" to skip.)
Starting Gmin stepping
Gmin = 10
vernier = 0.5
vernier = 0.25
vernier = 0.125
Gmin = 5.5165
vernier = 0.0625
vernier = 0.03125
vernier = 0.015625
vernier = 0.0078125
Gmin = 5.42104
vernier = 0.00390625
vernier = 0.00195313
vernier = 0.000976563
vernier = 0.000488281
Gmin = 0
Gmin = 0
Gmin stepping succeeded in finding the operating point.

Heightened Def Con from 5.47537e-005 to 5.47537e-005

Date: Wed Dec 11 23:31:39 2024
Total elapsed time: 1.582 seconds.

tnom = 27
temp = 27
method = modified trap
totiter = 94413
traniter = 92835
tranpoints = 43847
accept = 26316
rejected = 17532
matrix size = 187
fillins = 307
solver = Normal
Thread vector: 7.7/4.2[5] 6.5/3.4[5] 3.8/2.4[5] 0.4/1.1[1]  2592/500
Matrix Compiler1: 32.76 KB object code size  4.2/2.0/[1.8]
Matrix Compiler2: 22.42 KB object code size  1.5/1.3/[0.9]

