Circuit: * Z:\home\ostoja\Elektronika\LNWB_BJT\301_servo.asc

Unknown node in .ic card: "m1" -- ignoring
WARNING: Less than two connections to node -15V.  This node is used by V2.
WARNING: Less than two connections to node N015.  This node is used by B3.
Direct Newton iteration failed to find .op point.  (Use ".option noopiter" to skip.)
Starting Gmin stepping
Gmin = 10
vernier = 0.5
vernier = 0.25
vernier = 0.125
Gmin = 5.5165
vernier = 0.0625
vernier = 0.03125
vernier = 0.015625
vernier = 0.0078125
Gmin = 5.45244
vernier = 0.00390625
vernier = 0.00195313
vernier = 0.000976563
Gmin = 5.43252
vernier = 0.000488281
Gmin = 0
Gmin stepping failed

Starting source stepping with srcstepmethod=0
Source Step = 3.0303%
Source Step = 33.3333%
Source Step = 63.6364%
Source Step = 93.9394%
Source stepping succeeded in finding the operating point.

Heightened Def Con from 6.91566e-005 to 6.91566e-005

Date: Thu Dec 12 10:59:47 2024
Total elapsed time: 1.551 seconds.

tnom = 27
temp = 27
method = modified trap
totiter = 122429
traniter = 120637
tranpoints = 55369
accept = 33226
rejected = 22144
matrix size = 186
fillins = 230
solver = Normal
Thread vector: 7.8/4.1[4] 2.7/2.2[4] 3.2/1.8[3] 0.3/1.0[1]  2592/500
Matrix Compiler1: 18.52 KB object code size  2.9/1.3/[0.8]
Matrix Compiler2: 19.65 KB object code size  1.7/1.9/[0.8]

