Circuit: * Z:\home\ostoja\Elektronika\LNWB_BJT\Draft1.asc

Direct Newton iteration for .op point succeeded.

Date: Thu Nov 28 22:17:55 2024
Total elapsed time: 0.163 seconds.

tnom = 27
temp = 27
method = modified trap
totiter = 7970
traniter = 7963
tranpoints = 3882
accept = 2418
rejected = 1464
matrix size = 12
fillins = 0
solver = Normal
Matrix Compiler1:      36 opcodes  0.1/[0.1]/0.1
Matrix Compiler2: 920 bytes object code size  0.1/0.1/[0.1]

