Circuit: * Z:\home\ostoja\Elektronika\LNWBA\LNWBA_bjt_class_A.asc

Unknown node in .ic card: "m1" -- ignoring
WARNING: Less than two connections to node 15V.  This node is used by V1.
WARNING: Less than two connections to node -15V.  This node is used by V2.
WARNING: Less than two connections to node N008.  This node is used by B2.
Direct Newton iteration for .op point succeeded.

Date: Tue Nov 05 15:29:17 2024
Total elapsed time: 0.161 seconds.

tnom = 27
temp = 27
method = modified trap
totiter = 8631
traniter = 8628
tranpoints = 3943
accept = 2442
rejected = 1501
matrix size = 25
fillins = 0
solver = Normal
Matrix Compiler1: 1004 bytes object code size  0.2/0.2/[0.1]
Matrix Compiler2: 1.59 KB object code size  0.2/0.3/[0.2]

