Circuit: * Z:\home\ostoja\Elektronika\LNWBA\LNWBA.asc

Warning: Multiple definitions of model "lsk389b" Type: JFET
Direct Newton iteration failed to find .op point.  (Use ".option noopiter" to skip.)
Starting Gmin stepping
Gmin = 10
vernier = 0.5
Gmin = 1.86414
vernier = 0.25
vernier = 0.125
vernier = 0.0625
vernier = 0.03125
Gmin = 1.77984
vernier = 0.015625
vernier = 0.0078125
vernier = 0.00390625
Gmin = 1.75402
vernier = 0.00520833
vernier = 0.00694444
Gmin = 1.73097
vernier = 0.00925925
Gmin = 1.69532
vernier = 0.0123457
vernier = 0.0164609
Gmin = 1.63715
vernier = 0.0219478
vernier = 0.0292638
Gmin = 1.54857
vernier = 0.0390184
Gmin = 1.41897
vernier = 0.0520245
vernier = 0.0693659
Gmin = 1.22584
vernier = 0.0924879
vernier = 0.123317
vernier = 0.0616586
Gmin = 1.03261
vernier = 0.0308293
vernier = 0.0154146
vernier = 0.00770732
Gmin = 1.00528
vernier = 0.00385366
vernier = 0.00192683
vernier = 0.000963415
vernier = 0.000481708
Gmin = 1.00649
Gmin = 0
Gmin stepping failed

Starting source stepping with srcstepmethod=0
Source Step = 3.0303%
Source Step = 33.3333%
Source Step = 63.6364%
Source Step = 93.9394%
Source stepping succeeded in finding the operating point.

Changing Tseed to 1e-013
Changing Tseed to 1e-015
Changing Tseed to 1e-012
Changing Tseed to 1e-016
Changing Tseed to 1e-011
Changing Tseed to 1e-017
Changing Tseed to 1e-010
Changing Tseed to 1e-018
Changing Tseed to 1e-009
Changing Tseed to 1e-019
Changing Tseed to 1e-008
Changing Tseed to 1e-020
Heightened Def Con from 0 +to 2.25e-010
Heightened Def Con from 4.75e-010 to 6e-010
Heightened Def Con from 6e-010 to 7.25e-010
Heightened Def Con from 1.27478e-009 to 1.39978e-009
Heightened Def Con from 1.39978e-009 ++++++++++++++++to 1.52478e-009
Heightened Def Con from 1.52681e-009 +++++++to 1.66744e-009
Heightened Def Con from 1.69869e-009 to 2.82369e-009
Heightened Def Con from 4.51578e-009 to 4.76773e-009
Heightened Def Con from 4.76773e-009 to 5.14273e-009
Heightened Def Con from 5.39273e-009 to 5.53335e-009
Heightened Def Con from 5.53335e-009 ++++++++++++++to 5.59585e-009
Heightened Def Con from 5.59585e-009 +to 9.59585e-009
Heightened Def Con from 1.95142e-008 to 1.96392e-008
Heightened Def Con from 1.982e-008 ++++++++to 1.982e-008
Heightened Def Con from 1.982e-008 ++++++++++++++++to 2.082e-008
Heightened Def Con from 2.082e-008 to 2.0945e-008
Heightened Def Con from 2.10387e-008 +to 2.10544e-008
Heightened Def Con from 2.10544e-008 ++++to 2.107e-008
Heightened Def Con from 2.107e-008 +++++++to 2.10856e-008
Heightened Def Con from 2.11169e-008 +to 2.22419e-008
Heightened Def Con from 2.70075e-008 +to 2.71327e-008
Heightened Def Con from 2.71327e-008 to 2.82577e-008
Heightened Def Con from 2.82577e-008 to 3.03827e-008
Heightened Def Con from 3.24989e-008 to 3.36239e-008
Heightened Def Con from 3.38817e-008 to 3.88817e-008
Heightened Def Con from 4.50072e-008 to 4.51341e-008
Heightened Def Con from 4.51341e-008 +++++to 4.51341e-008
Heightened Def Con from 4.51341e-008 +++++++++++to 4.52591e-008
Heightened Def Con from 4.52591e-008 ++to 4.82591e-008
Heightened Def Con from 5.84076e-008 +to 6.04233e-008
Heightened Def Con from 6.04545e-008 to 6.34545e-008
Heightened Def Con from 6.98334e-008 to 7.00834e-008
Heightened Def Con from 7.00834e-008 ++++++to 7.00834e-008
Heightened Def Con from 7.00834e-008 +++++++++++to 7.02084e-008
Heightened Def Con from 7.02084e-008 +++to 7.02087e-008
Heightened Def Con from 7.02091e-008 ++++++++++++++++to 7.02248e-008
Heightened Def Con from 7.02248e-008 ++++to 7.02248e-008
Heightened Def Con from 7.02248e-008 to 7.13498e-008
Heightened Def Con from 7.7256e-008 to 7.73966e-008
Heightened Def Con from 7.73966e-008 ++++++++++++++++++++to 7.77873e-008
Heightened Def Con from 7.77873e-008 to 8.17873e-008
Heightened Def Con from 8.24186e-008 to 8.35436e-008
Heightened Def Con from 8.3671e-008 to 8.46867e-008
Heightened Def Con from 9.43314e-008 +to 9.44564e-008
Heightened Def Con from 9.44564e-008 ++to 9.44566e-008
Heightened Def Con from 9.44566e-008 +++++to 9.44723e-008
Heightened Def Con from 9.44723e-008 ++to 9.44879e-008
Heightened Def Con from 9.44879e-008 ++++++to 9.46285e-008
Heightened Def Con from 9.46285e-008 +to 9.47535e-008
Heightened Def Con from 9.47535e-008 +to 9.87535e-008
Heightened Def Con from 1.04769e-007 to 1.04785e-007
Heightened Def Con from 1.04844e-007 to 1.0586e-007
Heightened Def Con from 1.05891e-007 to 1.08016e-007
Heightened Def Con from 1.09909e-007 +to 1.13909e-007
Heightened Def Con from 1.14206e-007 to 1.17206e-007
Heightened Def Con from 1.20206e-007 ++++++++to 1.20221e-007
Heightened Def Con from 1.20222e-007 +++++++++to 1.20222e-007
Heightened Def Con from 1.20222e-007 ++++to 1.20238e-007
Heightened Def Con from 1.20238e-007 ++to 1.20238e-007
Heightened Def Con from 1.20238e-007 to 1.20241e-007
Heightened Def Con from 1.20241e-007 +++++++++++to 1.20241e-007
Heightened Def Con from 1.20241e-007 +++++to 1.20257e-007
Heightened Def Con from 1.20257e-007 +++to 1.20257e-007
Heightened Def Con from 1.20257e-007 +++++++++++++++to 1.20382e-007
Heightened Def Con from 1.20382e-007 ++++++++++++++++to 1.20507e-007
Heightened Def Con from 1.20757e-007 ++to 1.21882e-007
Heightened Def Con from 1.21882e-007 to 1.24882e-007
Heightened Def Con from 1.26882e-007 +++to 1.31007e-007
Heightened Def Con from 1.31132e-007 ++to 1.32164e-007
Heightened Def Con from 1.32164e-007 +to 1.36164e-007
Heightened Def Con from 1.37566e-007 to 1.40566e-007
Heightened Def Con from 1.44691e-007 +++to 1.44816e-007
Heightened Def Con from 1.44816e-007 +to 1.44957e-007
Heightened Def Con from 1.44957e-007 +to 1.45082e-007
Heightened Def Con from 1.45113e-007 to 1.45238e-007
Heightened Def Con from 1.45238e-007 +++++++++to 1.45239e-007
Heightened Def Con from 1.45239e-007 ++to 1.45239e-007
Heightened Def Con from 1.45239e-007 ++to 1.45241e-007
Heightened Def Con from 1.45241e-007 ++++++++to 1.45241e-007
Heightened Def Con from 1.45241e-007 ++++to 1.45243e-007
Heightened Def Con from 1.45243e-007 +++++++to 1.45243e-007
Heightened Def Con from 1.45243e-007 +++to 1.45245e-007
Heightened Def Con from 1.45245e-007 to 1.45245e-007
Heightened Def Con from 1.45245e-007 ++++to 1.45245e-007
Heightened Def Con from 1.45245e-007 ++++to 1.4526e-007
Heightened Def Con from 1.4526e-007 +++++++++++to 1.45276e-007
Heightened Def Con from 1.45276e-007 ++++++++++++++to 1.46401e-007
Heightened Def Con from 1.46401e-007 to 1.49401e-007
Heightened Def Con from 1.52401e-007 to 1.54526e-007
Heightened Def Con from 1.54526e-007 +++++to 1.57901e-007
Heightened Def Con from 1.5887e-007 to 1.5987e-007
Heightened Def Con from 1.5987e-007 to 1.60995e-007
Heightened Def Con from 1.61034e-007 to 1.64034e-007
Heightened Def Con from 1.64773e-007 to 1.67773e-007
Heightened Def Con from 1.70773e-007 to 1.73773e-007
Heightened Def Con from 1.77202e-007 +to 1.80327e-007
Heightened Def Con from 1.80359e-007 ++to 1.81624e-007
Heightened Def Con from 1.81937e-007 to 1.81939e-007
Heightened Def Con from 1.81939e-007 +to 1.82314e-007
Heightened Def Con from 1.82345e-007 ++++++++++++++to 1.82628e-007
Heightened Def Con from 1.92359e-007 +to 1.96359e-007
Heightened Def Con from 2.04926e-007 +to 2.05067e-007
Heightened Def Con from 2.05067e-007 to 2.06083e-007
Heightened Def Con from 2.06176e-007 to 2.09176e-007
Heightened Def Con from 2.09301e-007 to 2.09303e-007
Heightened Def Con from 2.09303e-007 +to 2.10553e-007
Heightened Def Con from 2.18908e-007 to 2.20033e-007
Heightened Def Con from 2.20033e-007 to 2.20049e-007
Heightened Def Con from 2.20049e-007 +++++++++++++to 2.20174e-007
Heightened Def Con from 2.20174e-007 to 2.20299e-007
Heightened Def Con from 2.20299e-007 to 2.23299e-007
Heightened Def Con from 2.26674e-007 to 2.26926e-007
Heightened Def Con from 2.2693e-007 +to 2.2707e-007
Heightened Def Con from 2.2707e-007 to 2.28195e-007
Heightened Def Con from 2.30961e-007 +to 2.32976e-007
Heightened Def Con from 2.33008e-007 to 2.36008e-007
Heightened Def Con from 2.36706e-007 to 2.39706e-007
Heightened Def Con from 2.44721e-007 to 2.44723e-007
Heightened Def Con from 2.44723e-007 to 2.44864e-007
Heightened Def Con from 2.44895e-007 to 2.4502e-007
Heightened Def Con from 2.45151e-007 to 2.45276e-007
Heightened Def Con from 2.45276e-007 +++++++++to 2.45292e-007
Heightened Def Con from 2.45296e-007 to 2.46298e-007
Heightened Def Con from 2.46298e-007 to 2.49298e-007
Heightened Def Con from 2.54298e-007 +to 2.55438e-007
Heightened Def Con from 2.55532e-007 to 2.58532e-007
Heightened Def Con from 2.58532e-007 to 2.59548e-007
Heightened Def Con from 2.59548e-007 to 2.59923e-007
Heightened Def Con from 2.60142e-007 to 2.63142e-007
Heightened Def Con from 2.64142e-007 to 2.67142e-007
Heightened Def Con from 2.70142e-007 +++++to 2.70267e-007
Heightened Def Con from 2.70267e-007 +++++to 2.70282e-007
Heightened Def Con from 2.70282e-007 to 2.70284e-007
Heightened Def Con from 2.70284e-007 +to 2.70284e-007
Heightened Def Con from 2.70284e-007 ++++++++to 2.70284e-007
Heightened Def Con from 2.70284e-007 ++++to 2.703e-007
Heightened Def Con from 2.703e-007 +to 2.743e-007
Heightened Def Con from 2.743e-007 to 2.76425e-007
Heightened Def Con from 2.76956e-007 +++to 2.81081e-007
Heightened Def Con from 2.82081e-007 to 2.82456e-007
Heightened Def Con from 2.8246e-007 to 2.83462e-007
Heightened Def Con from 2.83462e-007 to 2.89462e-007
Heightened Def Con from 2.94462e-007 to 2.94587e-007
Heightened Def Con from 2.94618e-007 +to 2.94743e-007
Heightened Def Con from 2.95036e-007 to 2.95161e-007
Heightened Def Con from 2.95161e-007 to 2.95286e-007
Heightened Def Con from 2.95286e-007 to 2.96411e-007
Heightened Def Con from 3.06434e-007 to 3.08559e-007
Heightened Def Con from 3.08563e-007 to 3.09688e-007
Heightened Def Con from 3.1013e-007 to 3.1313e-007
Heightened Def Con from 3.19378e-007 to 3.19503e-007
Heightened Def Con from 3.19503e-007 to 3.19628e-007
Heightened Def Con from 3.19818e-007 to 3.20068e-007
Heightened Def Con from 3.20068e-007 ++to 3.20193e-007
Heightened Def Con from 3.20193e-007 ++to 3.24193e-007
Heightened Def Con from 3.2724e-007 +++++to 3.27256e-007
Heightened Def Con from 3.27256e-007 to 3.28381e-007
Heightened Def Con from 3.29506e-007 to 3.30631e-007
Heightened Def Con from 3.30943e-007 to 3.31959e-007
Heightened Def Con from 3.31959e-007 +to 3.35959e-007
Heightened Def Con from 3.36389e-007 to 3.39389e-007
Heightened Def Con from 3.44389e-007 to 3.44514e-007
Heightened Def Con from 3.44764e-007 +to 3.44889e-007
Heightened Def Con from 3.45139e-007 +++to 3.45139e-007
Heightened Def Con from 3.45139e-007 +to 3.45264e-007
Heightened Def Con from 3.45264e-007 ++++++++++++++to 3.45265e-007
Heightened Def Con from 3.45265e-007 ++++++++++to 3.45267e-007
Heightened Def Con from 3.45267e-007 +++++++++++++++to 3.46392e-007
Heightened Def Con from 3.56399e-007 to 3.58524e-007
Heightened Def Con from 3.58743e-007 to 3.59868e-007
Heightened Def Con from 3.59984e-007 +++++++to 3.60063e-007
Heightened Def Con from 3.60094e-007 to 3.61219e-007
Heightened Def Con from 3.61383e-007 to 3.64383e-007
Heightened Def Con from 3.64383e-007 to 3.67383e-007
Heightened Def Con from 3.69758e-007 to 3.69883e-007
Heightened Def Con from 3.70132e-007 +++++++to 3.70273e-007
Heightened Def Con from 3.70273e-007 +to 3.70273e-007
Heightened Def Con from 3.70273e-007 +to 3.70288e-007
Heightened Def Con from 3.70288e-007 to 3.70304e-007
Heightened Def Con from 3.70304e-007 ++++to 3.70306e-007
Heightened Def Con from 3.70306e-007 to 3.70307e-007
Heightened Def Con from 3.70307e-007 +++++++++++to 3.70307e-007
Heightened Def Con from 3.70307e-007 +++++++++++to 3.70322e-007
Heightened Def Con from 3.70322e-007 ++++to 3.70322e-007
Heightened Def Con from 3.70322e-007 ++to 3.70324e-007
Heightened Def Con from 3.70324e-007 +to 3.70325e-007
Heightened Def Con from 3.70325e-007 +++++++++to 3.70325e-007
Heightened Def Con from 3.70325e-007 +++++++++++to 3.70325e-007
Heightened Def Con from 3.70325e-007 ++++++++++++++++to 3.71325e-007
Heightened Def Con from 3.71489e-007 ++++++to 3.71489e-007
Heightened Def Con from 3.71489e-007 to 3.7152e-007
Heightened Def Con from 3.7152e-007 to 3.72645e-007
Heightened Def Con from 3.7877e-007 to 3.8177e-007
Heightened Def Con from 3.81817e-007 ++to 3.83005e-007
Heightened Def Con from 3.831e-007 to 3.861e-007
Heightened Def Con from 3.9513e-007 +++++++++++++to 3.95146e-007
Heightened Def Con from 3.95146e-007 +++to 3.95146e-007
Heightened Def Con from 3.95146e-007 +to 3.98271e-007
Heightened Def Con from 4.08146e-007 +to 4.08646e-007
Heightened Def Con from 4.08646e-007 to 4.08773e-007
Heightened Def Con from 4.08773e-007 to 4.08913e-007
Heightened Def Con from 4.09117e-007 to 4.09382e-007
Heightened Def Con from 4.10296e-007 to 4.13296e-007
Heightened Def Con from 4.20073e-007 +++to 4.20073e-007
Heightened Def Con from 4.20073e-007 +++++++++to 4.20075e-007
Heightened Def Con from 4.20076e-007 ++to 4.20076e-007
Heightened Def Con from 4.20076e-007 +to 4.20091e-007
Heightened Def Con from 4.20095e-007 to 4.20095e-007
Heightened Def Con from 4.20095e-007 +++to 4.20111e-007
Heightened Def Con from 4.20111e-007 to 4.20126e-007
Heightened Def Con from 4.20126e-007 ++to 4.20127e-007
Heightened Def Con from 4.20127e-007 +++to 4.20127e-007
Heightened Def Con from 4.20127e-007 +to 4.20127e-007
Heightened Def Con from 4.20127e-007 to 4.20127e-007
Heightened Def Con from 4.20127e-007 +++++++++++++to 4.20143e-007
Heightened Def Con from 4.20143e-007 ++++++++++++++++to 4.21143e-007
Heightened Def Con from 4.21268e-007 to 4.21284e-007
Heightened Def Con from 4.21284e-007 +++to 4.21299e-007
Heightened Def Con from 4.21299e-007 ++++to 4.213e-007
Heightened Def Con from 4.213e-007 to 4.21331e-007
Heightened Def Con from 4.21331e-007 to 4.22456e-007
Heightened Def Con from 4.27444e-007 +to 4.27446e-007
Heightened Def Con from 4.27446e-007 to 4.27477e-007
Heightened Def Con from 4.27477e-007 ++to 4.30478e-007
Heightened Def Con from 4.30478e-007 to 4.30509e-007
Heightened Def Con from 4.30555e-007 ++to 4.32696e-007
Heightened Def Con from 4.32805e-007 to 4.35805e-007
Heightened Def Con from 4.36714e-007 to 4.39714e-007
Heightened Def Con from 4.45714e-007 to 4.48714e-007
Heightened Def Con from 4.54851e-007 +to 4.57976e-007
Heightened Def Con from 4.58304e-007 to 4.58444e-007
Heightened Def Con from 4.58913e-007 to 4.60913e-007
Heightened Def Con from 4.60913e-007 to 4.63913e-007
Heightened Def Con from 4.69663e-007 to 4.69788e-007
Heightened Def Con from 4.69788e-007 to 4.69913e-007
Heightened Def Con from 4.69913e-007 +to 4.73913e-007
Heightened Def Con from 4.75944e-007 to 4.77069e-007
Heightened Def Con from 4.771e-007 +to 4.77102e-007
Heightened Def Con from 4.77102e-007 +to 4.77118e-007
Heightened Def Con from 4.77118e-007 to 4.77134e-007
Heightened Def Con from 4.77134e-007 to 4.77136e-007
Heightened Def Con from 4.77139e-007 to 4.77171e-007
Heightened Def Con from 4.77175e-007 +to 4.803e-007
Heightened Def Con from 4.81393e-007 to 4.83518e-007
Heightened Def Con from 4.84612e-007 to 4.89612e-007
Heightened Def Con from 4.94987e-007 +to 4.98987e-007
Heightened Def Con from 5.04425e-007 +to 5.08425e-007
Heightened Def Con from 5.09893e-007 to 5.10159e-007
Heightened Def Con from 5.10159e-007 to 5.13159e-007
Heightened Def Con from 5.14534e-007 to 5.17534e-007
Heightened Def Con from 5.19659e-007 to 5.19784e-007
Heightened Def Con from 5.19784e-007 to 5.19909e-007
Heightened Def Con from 5.20087e-007 to 5.20212e-007
Heightened Def Con from 5.20212e-007 ++to 5.20212e-007
Heightened Def Con from 5.20212e-007 +++to 5.20228e-007
Heightened Def Con from 5.20228e-007 ++++++++to 5.20244e-007
Heightened Def Con from 5.20244e-007 ++to 5.2026e-007
Heightened Def Con from 5.2026e-007 +++++++++++++to 5.20275e-007
Heightened Def Con from 5.20275e-007 to 5.214e-007
Heightened Def Con from 5.24588e-007 to 5.26713e-007
Heightened Def Con from 5.26713e-007 to 5.26978e-007
Heightened Def Con from 5.26978e-007 to 5.28103e-007
Heightened Def Con from 5.31017e-007 to 5.32019e-007
Heightened Def Con from 5.32019e-007 to 5.32394e-007
Heightened Def Con from 5.32394e-007 to 5.3341e-007
Heightened Def Con from 5.33414e-007 to 5.36414e-007
Heightened Def Con from 5.36414e-007 to 5.39414e-007
Heightened Def Con from 5.44414e-007 ++to 5.44539e-007
Heightened Def Con from 5.44539e-007 +to 5.44555e-007
Heightened Def Con from 5.44586e-007 to 5.44711e-007
Heightened Def Con from 5.44855e-007 to 5.4498e-007
Heightened Def Con from 5.4498e-007 +to 5.4898e-007
Heightened Def Con from 5.56105e-007 to 5.5823e-007
Heightened Def Con from 5.5848e-007 +to 5.59745e-007
Heightened Def Con from 5.59746e-007 to 5.60747e-007
Heightened Def Con from 5.60747e-007 to 5.63747e-007
Heightened Def Con from 5.6406e-007 to 5.6706e-007
Heightened Def Con from 5.70185e-007 ++to 5.70185e-007
Heightened Def Con from 5.70185e-007 ++to 5.7031e-007
Heightened Def Con from 5.7031e-007 to 5.71435e-007
Heightened Def Con from 5.74232e-007 to 5.76357e-007
Heightened Def Con from 5.77216e-007 to 5.78232e-007
Heightened Def Con from 5.78263e-007 to 5.81263e-007
Heightened Def Con from 5.82154e-007 +++to 5.86279e-007
Heightened Def Con from 5.86294e-007 to 5.89294e-007
Heightened Def Con from 5.95044e-007 to 5.95169e-007
Heightened Def Con from 5.95169e-007 to 5.95294e-007
Heightened Def Con from 5.95294e-007 +to 5.99294e-007
Heightened Def Con from 6.04294e-007 to 6.04296e-007
Heightened Def Con from 6.04296e-007 to 6.04562e-007
Heightened Def Con from 6.04562e-007 to 6.04937e-007
Heightened Def Con from 6.05031e-007 to 6.06046e-007
Heightened Def Con from 6.0614e-007 to 6.0914e-007
Heightened Def Con from 6.10031e-007 +to 6.14031e-007
Heightened Def Con from 6.19745e-007 +to 6.1987e-007
Heightened Def Con from 6.20044e-007 +++to 6.20169e-007
Heightened Def Con from 6.20169e-007 ++++++to 6.20169e-007
Heightened Def Con from 6.20169e-007 ++++++++++++++++to 6.21169e-007
Heightened Def Con from 6.21325e-007 to 6.21341e-007
Heightened Def Con from 6.21342e-007 ++to 6.21357e-007
Heightened Def Con from 6.21357e-007 to 6.22482e-007
Heightened Def Con from 6.27396e-007 to 6.27412e-007
Heightened Def Con from 6.27412e-007 to 6.27427e-007
Heightened Def Con from 6.27427e-007 +to 6.27443e-007
Heightened Def Con from 6.27443e-007 ++to 6.27459e-007
Heightened Def Con from 6.27459e-007 +to 6.30584e-007
Heightened Def Con from 6.31021e-007 +to 6.32023e-007
Heightened Def Con from 6.32023e-007 +to 6.32164e-007
Heightened Def Con from 6.32258e-007 to 6.33258e-007
Heightened Def Con from 6.33258e-007 to 6.36258e-007
Heightened Def Con from 6.44226e-007 ++++to 6.44351e-007
Heightened Def Con from 6.44977e-007 to 6.45102e-007
Heightened Def Con from 6.45102e-007 +++to 6.45102e-007
Heightened Def Con from 6.45102e-007 ++to 6.45102e-007
Heightened Def Con from 6.45102e-007 ++++++to 6.45102e-007
Heightened Def Con from 6.45102e-007 ++++++to 6.45118e-007
Heightened Def Con from 6.45118e-007 +to 6.45118e-007
Heightened Def Con from 6.45118e-007 ++++++++to 6.4515e-007
Heightened Def Con from 6.4515e-007 +++++to 6.4515e-007
Heightened Def Con from 6.4515e-007 +to 6.4515e-007
Heightened Def Con from 6.4515e-007 ++++++to 6.4515e-007
Heightened Def Con from 6.4515e-007 +to 6.4515e-007
Heightened Def Con from 6.4515e-007 +++to 6.45151e-007
Heightened Def Con from 6.45151e-007 ++++to 6.45166e-007
Heightened Def Con from 6.45171e-007 +to 6.49171e-007
Heightened Def Con from 6.55202e-007 to 6.58202e-007
Heightened Def Con from 6.59577e-007 to 6.59843e-007
Heightened Def Con from 6.59843e-007 to 6.60859e-007
Heightened Def Con from 6.6089e-007 to 6.6389e-007
Heightened Def Con from 6.65435e-007 to 6.68435e-007
Heightened Def Con from 6.6981e-007 to 6.69935e-007
Heightened Def Con from 6.69967e-007 +to 6.70092e-007
Heightened Def Con from 6.70259e-007 ++++++++++++++++to 6.71259e-007
Heightened Def Con from 6.71384e-007 to 6.71399e-007
Heightened Def Con from 6.71399e-007 +++++++++++++++to 6.71524e-007
Heightened Def Con from 6.71524e-007 +++++++++++++++to 6.71524e-007
Heightened Def Con from 6.71524e-007 ++++++++++++++++to 6.7154e-007
Heightened Def Con from 6.7154e-007 +++++++++++++to 6.71555e-007
Heightened Def Con from 6.71555e-007 to 6.74555e-007
Heightened Def Con from 6.77118e-007 +to 6.81118e-007
Heightened Def Con from 6.81243e-007 to 6.82368e-007
Heightened Def Con from 6.82368e-007 ++++++++to 6.82462e-007
Heightened Def Con from 6.82462e-007 to 6.83587e-007
Heightened Def Con from 6.83618e-007 to 6.89618e-007
Heightened Def Con from 6.94618e-007 to 6.94743e-007
Heightened Def Con from 6.94993e-007 +to 6.95118e-007
Heightened Def Con from 6.95118e-007 ++to 6.95243e-007
Heightened Def Con from 6.95243e-007 to 6.95243e-007
Heightened Def Con from 6.95243e-007 ++++to 6.95243e-007
Heightened Def Con from 6.95243e-007 +++++++++to 6.95243e-007
Heightened Def Con from 6.95243e-007 ++to 6.95245e-007
Heightened Def Con from 6.95245e-007 to 6.95261e-007
Heightened Def Con from 6.95261e-007 to 6.96386e-007
Heightened Def Con from 7.04573e-007 ++to 7.07948e-007
Heightened Def Con from 7.08698e-007 to 7.09823e-007
Heightened Def Con from 7.10172e-007 to 7.10188e-007
Heightened Def Con from 7.10188e-007 to 7.13188e-007
Heightened Def Con from 7.14188e-007 to 7.17188e-007
Heightened Def Con from 7.27188e-007 to 7.27204e-007
Heightened Def Con from 7.27235e-007 +to 7.27376e-007
Heightened Def Con from 7.27376e-007 to 7.28391e-007
Heightened Def Con from 7.31251e-007 +to 7.32391e-007
Heightened Def Con from 7.32537e-007 +++++++++to 7.32586e-007
Heightened Def Con from 7.32586e-007 +to 7.35711e-007
Heightened Def Con from 7.36425e-007 to 7.39425e-007
Heightened Def Con from 7.43425e-007 to 7.4455e-007
Heightened Def Con from 7.44863e-007 +++to 7.44863e-007
Heightened Def Con from 7.44863e-007 +to 7.44988e-007
Heightened Def Con from 7.45081e-007 +to 7.45206e-007
Heightened Def Con from 7.45206e-007 +to 7.45206e-007
Heightened Def Con from 7.45206e-007 +to 7.45207e-007
Heightened Def Con from 7.45207e-007 to 7.45222e-007
Heightened Def Con from 7.45222e-007 +to 7.45224e-007
Heightened Def Con from 7.45224e-007 +++++++to 7.45224e-007
Heightened Def Con from 7.45224e-007 ++to 7.4524e-007
Heightened Def Con from 7.4524e-007 +++++to 7.4524e-007
Heightened Def Con from 7.4524e-007 ++to 7.45242e-007
Heightened Def Con from 7.45242e-007 ++++to 7.45242e-007
Heightened Def Con from 7.45242e-007 ++to 7.45242e-007
Heightened Def Con from 7.45242e-007 ++++to 7.45242e-007
Heightened Def Con from 7.45242e-007 +++++++++to 7.45242e-007
Heightened Def Con from 7.45242e-007 +to 7.45258e-007
Heightened Def Con from 7.45262e-007 +++++++to 7.45262e-007
Heightened Def Con from 7.45262e-007 +++++++++++++++to 7.45387e-007
Heightened Def Con from 7.45412e-007 to 7.48412e-007
Heightened Def Con from 7.53537e-007 to 7.55662e-007
Heightened Def Con from 7.59136e-007 to 7.59511e-007
Heightened Def Con from 7.60261e-007 to 7.63261e-007
Heightened Def Con from 7.70149e-007 +++++++++++++++to 7.70165e-007
Heightened Def Con from 7.70165e-007 +to 7.74165e-007
Heightened Def Con from 7.78165e-007 to 7.81165e-007
Heightened Def Con from 7.82165e-007 to 7.8254e-007
Heightened Def Con from 7.8254e-007 to 7.83555e-007
Heightened Def Con from 7.83555e-007 to 7.8668e-007
Heightened Def Con from 7.89751e-007 to 7.92751e-007
Heightened Def Con from 7.95751e-007 to 7.98751e-007
Heightened Def Con from 7.99126e-007 to 8.02126e-007
Heightened Def Con from 8.04282e-007 to 8.04298e-007
Heightened Def Con from 8.04298e-007 +to 8.08298e-007
Heightened Def Con from 8.08532e-007 ++++++++to 8.09813e-007
Heightened Def Con from 8.09934e-007 to 8.09936e-007
Heightened Def Con from 8.09936e-007 ++to 8.13077e-007
Heightened Def Con from 8.16235e-007 to 8.19235e-007
Heightened Def Con from 8.20235e-007 to 8.2025e-007
Heightened Def Con from 8.2025e-007 +to 8.20266e-007
Heightened Def Con from 8.20266e-007 to 8.21391e-007
Heightened Def Con from 8.2716e-007 to 8.27301e-007
Heightened Def Con from 8.27332e-007 to 8.30332e-007
Heightened Def Con from 8.31207e-007 to 8.32332e-007
Heightened Def Con from 8.3242e-007 +to 8.3567e-007
Heightened Def Con from 8.37794e-007 to 8.40794e-007
Heightened Def Con from 8.4495e-007 to 8.45075e-007
Heightened Def Con from 8.45204e-007 ++to 8.45329e-007
Heightened Def Con from 8.45329e-007 to 8.48329e-007
Heightened Def Con from 8.54466e-007 to 8.54841e-007
Heightened Def Con from 8.54845e-007 +to 8.5797e-007
Heightened Def Con from 8.58009e-007 to 8.5804e-007
Heightened Def Con from 8.5804e-007 to 8.59165e-007
Heightened Def Con from 8.60613e-007 to 8.63613e-007
Heightened Def Con from 8.64508e-007 to 8.67508e-007
Heightened Def Con from 8.69634e-007 to 8.70636e-007
Heightened Def Con from 8.70636e-007 to 8.73636e-007
Heightened Def Con from 8.76636e-007 to 8.76761e-007
Heightened Def Con from 8.76975e-007 to 8.77991e-007
Heightened Def Con from 8.77991e-007 to 8.80991e-007
Heightened Def Con from 8.81171e-007 to 8.82296e-007
Heightened Def Con from 8.82458e-007 +to 8.85583e-007
Heightened Def Con from 8.9434e-007 to 8.94465e-007
Heightened Def Con from 8.9476e-007 to 8.94885e-007
Heightened Def Con from 8.94885e-007 +to 8.98885e-007
Heightened Def Con from 9.08197e-007 to 9.08572e-007
Heightened Def Con from 9.08666e-007 to 9.09791e-007
Heightened Def Con from 9.10139e-007 to 9.13139e-007
Heightened Def Con from 9.14264e-007 to 9.17264e-007
Heightened Def Con from 9.20264e-007 ++++to 9.20265e-007
Heightened Def Con from 9.20265e-007 ++++++++++++++to 9.2039e-007
Heightened Def Con from 9.2039e-007 to 9.2339e-007
Heightened Def Con from 9.27702e-007 to 9.30702e-007
Heightened Def Con from 9.31702e-007 +to 9.32077e-007
Heightened Def Con from 9.32765e-007 to 9.35765e-007
Heightened Def Con from 9.45156e-007 ++++to 9.45158e-007
Heightened Def Con from 9.45158e-007 ++++to 9.45173e-007
Heightened Def Con from 9.45173e-007 ++to 9.45189e-007
Heightened Def Con from 9.45189e-007 +++to 9.49189e-007
Heightened Def Con from 9.52345e-007 to 9.5447e-007
Heightened Def Con from 9.54947e-007 ++to 9.54962e-007
Heightened Def Con from 9.54962e-007 to 9.55103e-007
Heightened Def Con from 9.55104e-007 to 9.58104e-007
Heightened Def Con from 9.59994e-007 +to 9.60135e-007
Heightened Def Con from 9.60229e-007 to 9.63229e-007
Heightened Def Con from 9.68733e-007 +to 9.69858e-007
Heightened Def Con from 9.69858e-007 to 9.69983e-007
Heightened Def Con from 9.70154e-007 +++++++++to 9.70155e-007
Heightened Def Con from 9.70155e-007 +++++++++++++to 9.7017e-007
Heightened Def Con from 9.7017e-007 +++++++++to 9.7017e-007
Heightened Def Con from 9.7017e-007 +++++++to 9.7017e-007
Heightened Def Con from 9.7017e-007 to 9.7017e-007
Heightened Def Con from 9.7017e-007 +++++++++++++++to 9.70186e-007
Heightened Def Con from 9.70186e-007 to 9.71311e-007
Heightened Def Con from 9.77186e-007 to 9.78311e-007
Heightened Def Con from 9.81217e-007 +++++to 9.86389e-007
Heightened Def Con from 9.86389e-007 to 9.89389e-007
Heightened Def Con from 9.94389e-007 +to 9.94514e-007
Heightened Def Con from 9.9481e-007 to 9.94935e-007
Heightened Def Con from 9.94935e-007 to 9.9506e-007
Heightened Def Con from 9.95091e-007 +to 9.95216e-007
Heightened Def Con from 9.95216e-007 ++++to 9.95218e-007
Heightened Def Con from 9.95218e-007 ++++to 9.95218e-007
Heightened Def Con from 9.95218e-007 +to 9.95234e-007
Heightened Def Con from 9.95234e-007 to 9.95234e-007
Heightened Def Con from 9.95234e-007 +to 9.95234e-007
Heightened Def Con from 9.95234e-007 ++++++++++++++++to 9.95359e-007
Heightened Def Con from 9.95359e-007 to 9.98359e-007
Heightened Def Con from 1.00252e-006 to 1.00465e-006
Heightened Def Con from 1.00496e-006 to 1.00498e-006
Heightened Def Con from 1.00498e-006 +++to 1.00837e-006
Heightened Def Con from 1.00912e-006 to 1.00914e-006
Heightened Def Con from 1.00914e-006 to 1.00951e-006
Heightened Def Con from 1.01028e-006 to 1.01328e-006
Heightened Def Con from 1.02764e-006 to 1.03064e-006
Heightened Def Con from 1.03246e-006 +to 1.03946e-006
Heightened Def Con from 1.04434e-006 to 1.04434e-006
Heightened Def Con from 1.04434e-006 +to 1.04446e-006
Heightened Def Con from 1.04504e-006 to 1.04517e-006
Heightened Def Con from 1.04517e-006 to 1.04529e-006
Heightened Def Con from 1.04529e-006 to 1.04642e-006
Heightened Def Con from 1.05457e-006 to 1.05494e-006
Heightened Def Con from 1.05504e-006 +to 1.05505e-006
Heightened Def Con from 1.05508e-006 to 1.05509e-006
Heightened Def Con from 1.05509e-006 to 1.05622e-006
Heightened Def Con from 1.05899e-006 to 1.06101e-006
Heightened Def Con from 1.06101e-006 to 1.06401e-006
Heightened Def Con from 1.07011e-006 +++++++++to 1.07011e-006
Heightened Def Con from 1.07011e-006 ++to 1.07012e-006
Heightened Def Con from 1.07012e-006 ++to 1.07014e-006
Heightened Def Con from 1.07014e-006 ++to 1.07026e-006
Heightened Def Con from 1.07026e-006 to 1.07039e-006
Heightened Def Con from 1.07054e-006 to 1.07354e-006
Heightened Def Con from 1.07729e-006 +to 1.08042e-006
Heightened Def Con from 1.08129e-006 to 1.08242e-006
Heightened Def Con from 1.08242e-006 to 1.08267e-006
Heightened Def Con from 1.08267e-006 to 1.08567e-006
Heightened Def Con from 1.08676e-006 to 1.08976e-006
Heightened Def Con from 1.09476e-006 to 1.09488e-006
Heightened Def Con from 1.09488e-006 +to 1.09501e-006
Heightened Def Con from 1.09501e-006 +to 1.09514e-006
Heightened Def Con from 1.09514e-006 to 1.09526e-006
Heightened Def Con from 1.09526e-006 ++++to 1.09526e-006
Heightened Def Con from 1.09526e-006 +++++to 1.09528e-006
Heightened Def Con from 1.09528e-006 to 1.0964e-006
Heightened Def Con from 1.10504e-006 to 1.10504e-006
Heightened Def Con from 1.10504e-006 to 1.10507e-006
Heightened Def Con from 1.10507e-006 to 1.10508e-006
Heightened Def Con from 1.10508e-006 +to 1.10509e-006
Heightened Def Con from 1.10509e-006 to 1.10622e-006
Heightened Def Con from 1.10911e-006 to 1.10949e-006
Heightened Def Con from 1.10976e-006 to 1.11078e-006
Heightened Def Con from 1.11089e-006 to 1.11389e-006
Heightened Def Con from 1.11398e-006 to 1.11698e-006
Heightened Def Con from 1.11999e-006 to 1.12101e-006
Heightened Def Con from 1.12101e-006 to 1.12401e-006
Heightened Def Con from 1.12716e-006 +to 1.12718e-006
Heightened Def Con from 1.12718e-006 to 1.1272e-006
Heightened Def Con from 1.1272e-006 to 1.12832e-006
Heightened Def Con from 1.12857e-006 to 1.1307e-006
Heightened Def Con from 1.13113e-006 +to 1.13118e-006
Heightened Def Con from 1.13118e-006 to 1.1322e-006
Heightened Def Con from 1.1322e-006 to 1.1332e-006
Heightened Def Con from 1.1332e-006 to 1.1362e-006
Heightened Def Con from 1.14486e-006 ++to 1.14498e-006
Heightened Def Con from 1.14498e-006 +to 1.14498e-006
Heightened Def Con from 1.14498e-006 ++++++++++++to 1.14523e-006
Heightened Def Con from 1.14523e-006 to 1.14823e-006
Heightened Def Con from 1.15511e-006 to 1.15811e-006
Heightened Def Con from 1.15893e-006 to 1.16094e-006
Heightened Def Con from 1.16094e-006 to 1.16394e-006
Heightened Def Con from 1.17013e-006 ++++++++++++to 1.17014e-006
Heightened Def Con from 1.17017e-006 ++++++to 1.17019e-006
Heightened Def Con from 1.17022e-006 to 1.17134e-006
Heightened Def Con from 1.17731e-006 +++to 1.17733e-006
Heightened Def Con from 1.17733e-006 to 1.17734e-006
Heightened Def Con from 1.17737e-006 to 1.1785e-006
Heightened Def Con from 1.18299e-006 to 1.18599e-006
Heightened Def Con from 1.19461e-006 to 1.19473e-006
Heightened Def Con from 1.19498e-006 to 1.19511e-006
Heightened Def Con from 1.19511e-006 +++++++++++++++to 1.19511e-006
Heightened Def Con from 1.19511e-006 +++++to 1.19511e-006
Heightened Def Con from 1.19511e-006 +++++to 1.19511e-006
Heightened Def Con from 1.19511e-006 to 1.19511e-006
Heightened Def Con from 1.19511e-006 ++++++++to 1.19512e-006
Heightened Def Con from 1.19512e-006 +++++to 1.19512e-006
Heightened Def Con from 1.19512e-006 +to 1.19512e-006
Heightened Def Con from 1.19512e-006 to 1.19512e-006
Heightened Def Con from 1.19512e-006 to 1.19512e-006
Heightened Def Con from 1.19512e-006 ++++++++to 1.19512e-006
Heightened Def Con from 1.19512e-006 +++++++++++to 1.19514e-006
Heightened Def Con from 1.19514e-006 to 1.19514e-006
Heightened Def Con from 1.19514e-006 to 1.19515e-006
Heightened Def Con from 1.19515e-006 +to 1.19515e-006
Heightened Def Con from 1.19515e-006 +to 1.19515e-006
Heightened Def Con from 1.19515e-006 +++++++++++++to 1.19517e-006
Heightened Def Con from 1.19517e-006 to 1.19519e-006
Heightened Def Con from 1.19519e-006 to 1.19631e-006
Heightened Def Con from 1.2087e-006 +++to 1.2102e-006
Heightened Def Con from 1.2102e-006 to 1.2132e-006
Heightened Def Con from 1.22061e-006 to 1.22361e-006
Heightened Def Con from 1.22742e-006 to 1.23042e-006
Heightened Def Con from 1.23044e-006 to 1.23081e-006
Heightened Def Con from 1.23106e-006 to 1.23219e-006
Heightened Def Con from 1.23236e-006 +to 1.23636e-006
Heightened Def Con from 1.23636e-006 to 1.23936e-006
Heightened Def Con from 1.24474e-006 to 1.24486e-006
Heightened Def Con from 1.24544e-006 to 1.24844e-006
Heightened Def Con from 1.25457e-006 to 1.25471e-006
Heightened Def Con from 1.25494e-006 to 1.25495e-006
Heightened Def Con from 1.25497e-006 +to 1.2581e-006
Heightened Def Con from 1.25891e-006 to 1.26103e-006
Heightened Def Con from 1.26409e-006 to 1.26709e-006
Heightened Def Con from 1.27025e-006 to 1.27125e-006
Heightened Def Con from 1.27125e-006 to 1.27425e-006
Heightened Def Con from 1.27713e-006 +to 1.27717e-006
Heightened Def Con from 1.2772e-006 ++++to 1.27721e-006
Heightened Def Con from 1.27721e-006 +to 1.28034e-006
Heightened Def Con from 1.28213e-006 to 1.28226e-006
Heightened Def Con from 1.28226e-006 to 1.28338e-006
Heightened Def Con from 1.29492e-006 to 1.29506e-006
Heightened Def Con from 1.29506e-006 +++to 1.29508e-006
Heightened Def Con from 1.29511e-006 +to 1.29511e-006
Heightened Def Con from 1.29511e-006 to 1.29513e-006
Heightened Def Con from 1.29513e-006 +to 1.29825e-006
Heightened Def Con from 1.30624e-006 to 1.30924e-006
Heightened Def Con from 1.30924e-006 to 1.30962e-006
Heightened Def Con from 1.30995e-006 ++to 1.3131e-006
Heightened Def Con from 1.32013e-006 ++++++++++++++++to 1.32113e-006
Heightened Def Con from 1.32113e-006 +to 1.32125e-006
Heightened Def Con from 1.32125e-006 to 1.32127e-006
Heightened Def Con from 1.32127e-006 to 1.32129e-006
Heightened Def Con from 1.32129e-006 +++to 1.3213e-006
Heightened Def Con from 1.32133e-006 +to 1.32533e-006
Heightened Def Con from 1.32833e-006 to 1.33046e-006
Heightened Def Con from 1.33076e-006 to 1.33114e-006
Heightened Def Con from 1.33114e-006 ++to 1.3324e-006
Heightened Def Con from 1.33252e-006 to 1.33365e-006
Heightened Def Con from 1.34466e-006 +to 1.34478e-006
Heightened Def Con from 1.34503e-006 +++++to 1.34503e-006
Heightened Def Con from 1.34503e-006 ++to 1.34503e-006
Heightened Def Con from 1.34503e-006 ++++++to 1.34506e-006
Heightened Def Con from 1.34506e-006 +++++++++++++++++to 1.34619e-006
Heightened Def Con from 1.35491e-006 to 1.35503e-006
Heightened Def Con from 1.35506e-006 ++to 1.35506e-006
Heightened Def Con from 1.35506e-006 +to 1.35509e-006
Heightened Def Con from 1.35509e-006 to 1.35511e-006
Heightened Def Con from 1.35511e-006 to 1.35623e-006
Heightened Def Con from 1.35624e-006 to 1.35836e-006
Heightened Def Con from 1.35867e-006 ++to 1.36005e-006
Heightened Def Con from 1.36014e-006 +++++++++++++to 1.36331e-006
Heightened Def Con from 1.36771e-006 +to 1.36984e-006
Heightened Def Con from 1.36984e-006 to 1.36996e-006
Heightened Def Con from 1.37013e-006 +to 1.37013e-006
Heightened Def Con from 1.37013e-006 ++++++++to 1.37013e-006
Heightened Def Con from 1.37013e-006 +to 1.37013e-006
Heightened Def Con from 1.37013e-006 ++++++++++to 1.37013e-006
Heightened Def Con from 1.37013e-006 ++to 1.37015e-006
Heightened Def Con from 1.37015e-006 +++++to 1.37017e-006
Heightened Def Con from 1.3702e-006 +++++++++++++++to 1.37132e-006
Heightened Def Con from 1.3768e-006 to 1.37706e-006
Heightened Def Con from 1.37731e-006 to 1.37733e-006
Heightened Def Con from 1.37733e-006 ++++to 1.37734e-006
Heightened Def Con from 1.37734e-006 ++++++to 1.37735e-006
Heightened Def Con from 1.37735e-006 +++to 1.38047e-006
Heightened Def Con from 1.38072e-006 +to 1.38074e-006
Heightened Def Con from 1.38074e-006 +to 1.38074e-006
Heightened Def Con from 1.38074e-006 ++to 1.38076e-006
Heightened Def Con from 1.38076e-006 to 1.3809e-006
Heightened Def Con from 1.3809e-006 to 1.38191e-006
Heightened Def Con from 1.38194e-006 +to 1.38594e-006
Heightened Def Con from 1.39509e-006 ++to 1.39509e-006
Heightened Def Con from 1.39509e-006 ++++++to 1.39511e-006
Heightened Def Con from 1.39511e-006 +++to 1.39511e-006
Heightened Def Con from 1.39511e-006 +to 1.39823e-006
Heightened Def Con from 1.40423e-006 to 1.40436e-006
Heightened Def Con from 1.40444e-006 to 1.40557e-006
Heightened Def Con from 1.40891e-006 to 1.41093e-006
Heightened Def Con from 1.41093e-006 to 1.41393e-006
Heightened Def Con from 1.41409e-006 to 1.41709e-006
Heightened Def Con from 1.42021e-006 +++++++++++++to 1.42034e-006
Heightened Def Con from 1.42034e-006 ++++++to 1.42036e-006
Heightened Def Con from 1.42036e-006 to 1.42061e-006
Heightened Def Con from 1.42417e-006 to 1.42717e-006
Heightened Def Con from 1.42817e-006 to 1.43117e-006
Heightened Def Con from 1.43217e-006 to 1.43255e-006
Heightened Def Con from 1.43255e-006 to 1.43367e-006
Heightened Def Con from 1.44012e-006 to 1.44312e-006
Heightened Def Con from 1.44524e-006 +++++++++to 1.44524e-006
Heightened Def Con from 1.44524e-006 +++++to 1.44524e-006
Heightened Def Con from 1.44524e-006 ++to 1.44926e-006
Heightened Def Con from 1.45464e-006 to 1.45501e-006
Heightened Def Con from 1.45501e-006 to 1.45614e-006
Heightened Def Con from 1.45776e-006 +++++to 1.46401e-006
Heightened Def Con from 1.46994e-006 +to 1.47007e-006
Heightened Def Con from 1.47007e-006 to 1.47007e-006
Heightened Def Con from 1.47007e-006 +++++++++++++++to 1.4702e-006
Heightened Def Con from 1.4702e-006 +++to 1.4702e-006
Heightened Def Con from 1.4702e-006 +to 1.4702e-006
Heightened Def Con from 1.4702e-006 ++++++++++++++++to 1.4712e-006
Heightened Def Con from 1.47132e-006 ++++++++to 1.47134e-006
Heightened Def Con from 1.47134e-006 to 1.47136e-006
Heightened Def Con from 1.47136e-006 +to 1.47236e-006
Heightened Def Con from 1.47236e-006 to 1.47536e-006
Heightened Def Con from 1.47736e-006 to 1.47848e-006
Heightened Def Con from 1.47873e-006 to 1.48173e-006
Heightened Def Con from 1.48175e-006 to 1.48202e-006
Heightened Def Con from 1.48205e-006 +++++to 1.4863e-006
Heightened Def Con from 1.48632e-006 to 1.48932e-006
Heightened Def Con from 1.49521e-006 +to 1.49521e-006
Heightened Def Con from 1.49521e-006 +to 1.49521e-006
Heightened Def Con from 1.49521e-006 +++++++++++to 1.49523e-006
Heightened Def Con from 1.49523e-006 +++++++to 1.49523e-006
Heightened Def Con from 1.49523e-006 +to 1.49836e-006
Heightened Def Con from 1.50492e-006 to 1.50496e-006
Heightened Def Con from 1.50499e-006 +to 1.505e-006
Heightened Def Con from 1.505e-006 to 1.505e-006
Heightened Def Con from 1.505e-006 +++to 1.50814e-006
Heightened Def Con from 1.51002e-006 +++to 1.51105e-006
Heightened Def Con from 1.51105e-006 to 1.51405e-006
Heightened Def Con from 1.51964e-006 to 1.51977e-006
Heightened Def Con from 1.52022e-006 +to 1.52022e-006
Heightened Def Con from 1.52022e-006 +++++++to 1.52022e-006
Heightened Def Con from 1.52022e-006 +to 1.52022e-006
Heightened Def Con from 1.52022e-006 +++++++++++to 1.52034e-006
Heightened Def Con from 1.52034e-006 to 1.52334e-006
Heightened Def Con from 1.53178e-006 to 1.53215e-006
Heightened Def Con from 1.53259e-006 ++to 1.53584e-006
Heightened Def Con from 1.53741e-006 to 1.54041e-006
Heightened Def Con from 1.54528e-006 ++to 1.54928e-006
Heightened Def Con from 1.55428e-006 to 1.55441e-006
Heightened Def Con from 1.55465e-006 to 1.55492e-006
Heightened Def Con from 1.55492e-006 to 1.55493e-006
Heightened Def Con from 1.55496e-006 to 1.55497e-006
Heightened Def Con from 1.55501e-006 +++++++++to 1.55501e-006
Heightened Def Con from 1.55501e-006 +to 1.55813e-006
Heightened Def Con from 1.55888e-006 to 1.5609e-006
Heightened Def Con from 1.5609e-006 to 1.5639e-006
Heightened Def Con from 1.56403e-006 to 1.56703e-006
Heightened Def Con from 1.57015e-006 +to 1.57028e-006
Heightened Def Con from 1.57029e-006 +++++to 1.57029e-006
Heightened Def Con from 1.57029e-006 ++to 1.57029e-006
Heightened Def Con from 1.57029e-006 ++to 1.57031e-006
Heightened Def Con from 1.57031e-006 ++++++++++++++++to 1.57131e-006
Heightened Def Con from 1.57144e-006 ++to 1.57144e-006
Heightened Def Con from 1.57144e-006 ++++to 1.57145e-006
Heightened Def Con from 1.57145e-006 to 1.57147e-006
Heightened Def Con from 1.57147e-006 to 1.57259e-006
Heightened Def Con from 1.57734e-006 to 1.57736e-006
Heightened Def Con from 1.57736e-006 ++++to 1.57738e-006
Heightened Def Con from 1.57738e-006 +to 1.57739e-006
Heightened Def Con from 1.57739e-006 +++to 1.57741e-006
Heightened Def Con from 1.57741e-006 ++++to 1.57742e-006
Heightened Def Con from 1.57742e-006 to 1.57844e-006
Heightened Def Con from 1.57844e-006 to 1.58144e-006
Heightened Def Con from 1.58157e-006 +to 1.58207e-006
Heightened Def Con from 1.58232e-006 +to 1.58632e-006
Heightened Def Con from 1.58632e-006 to 1.58932e-006
Heightened Def Con from 1.59432e-006 to 1.59444e-006
Heightened Def Con from 1.59507e-006 +to 1.59519e-006
Heightened Def Con from 1.59522e-006 +++to 1.59524e-006
Heightened Def Con from 1.59527e-006 to 1.5964e-006
Heightened Def Con from 1.59852e-006 to 1.60152e-006
Heightened Def Con from 1.60966e-006 to 1.60979e-006
Heightened Def Con from 1.60979e-006 to 1.61092e-006
Heightened Def Con from 1.61332e-006 to 1.61732e-006
Heightened Def Con from 1.62019e-006 ++++++to 1.62019e-006
Heightened Def Con from 1.62019e-006 ++to 1.62019e-006
Heightened Def Con from 1.62019e-006 +++++to 1.62021e-006
Heightened Def Con from 1.62021e-006 +++++to 1.62021e-006
Heightened Def Con from 1.62021e-006 +++++++++++++++to 1.62034e-006
Heightened Def Con from 1.62034e-006 to 1.62334e-006
Heightened Def Con from 1.62649e-006 +to 1.62712e-006
Heightened Def Con from 1.62745e-006 +to 1.63057e-006
Heightened Def Con from 1.6328e-006 to 1.6358e-006
Heightened Def Con from 1.63806e-006 to 1.64106e-006
Heightened Def Con from 1.64518e-006 ++++to 1.64518e-006
Heightened Def Con from 1.64518e-006 ++to 1.64519e-006
Heightened Def Con from 1.64519e-006 to 1.64519e-006
Heightened Def Con from 1.64519e-006 +to 1.6452e-006
Heightened Def Con from 1.6452e-006 +++++to 1.6452e-006
Heightened Def Con from 1.6452e-006 +to 1.6452e-006
Heightened Def Con from 1.6452e-006 ++++++to 1.6452e-006
Heightened Def Con from 1.6452e-006 +to 1.64521e-006
Heightened Def Con from 1.64521e-006 +to 1.64521e-006
Heightened Def Con from 1.64521e-006 +to 1.64522e-006
Heightened Def Con from 1.64523e-006 ++++++++to 1.64523e-006
Heightened Def Con from 1.64523e-006 to 1.64523e-006
Heightened Def Con from 1.64523e-006 +++to 1.64525e-006
Heightened Def Con from 1.64525e-006 +++++++++++++to 1.64526e-006
Heightened Def Con from 1.64526e-006 ++to 1.64528e-006
Heightened Def Con from 1.64528e-006 +++to 1.64528e-006
Heightened Def Con from 1.64528e-006 ++++to 1.64528e-006
Heightened Def Con from 1.64528e-006 ++to 1.64529e-006
Heightened Def Con from 1.64529e-006 to 1.64642e-006
Heightened Def Con from 1.65504e-006 to 1.65506e-006
Heightened Def Con from 1.65506e-006 to 1.65508e-006
Heightened Def Con from 1.65508e-006 +to 1.6582e-006
Heightened Def Con from 1.66004e-006 to 1.66117e-006
Heightened Def Con from 1.66394e-006 to 1.66694e-006
Heightened Def Con from 1.66995e-006 +to 1.67395e-006
Heightened Def Con from 1.67708e-006 ++to 1.68033e-006
Heightened Def Con from 1.68078e-006 to 1.68115e-006
Heightened Def Con from 1.68115e-006 +to 1.6824e-006
Heightened Def Con from 1.6824e-006 to 1.6824e-006
Heightened Def Con from 1.6824e-006 ++++to 1.6824e-006
Heightened Def Con from 1.6824e-006 +++++++++++++to 1.68252e-006
Heightened Def Con from 1.68252e-006 +to 1.68952e-006
Heightened Def Con from 1.6949e-006 to 1.69502e-006
Heightened Def Con from 1.69559e-006 to 1.69859e-006
Heightened Def Con from 1.70867e-006 to 1.70979e-006
Heightened Def Con from 1.70991e-006 to 1.71005e-006
Heightened Def Con from 1.71008e-006 to 1.71308e-006
Heightened Def Con from 1.71982e-006 ++to 1.71995e-006
Heightened Def Con from 1.71995e-006 to 1.72007e-006
Heightened Def Con from 1.72007e-006 +++++++++++++to 1.7202e-006
Heightened Def Con from 1.7202e-006 ++++to 1.72032e-006
Heightened Def Con from 1.72046e-006 to 1.72346e-006
Heightened Def Con from 1.7269e-006 to 1.72702e-006
Heightened Def Con from 1.72702e-006 +to 1.73102e-006
Heightened Def Con from 1.73115e-006 ++++to 1.73233e-006
Heightened Def Con from 1.73246e-006 to 1.73251e-006
Heightened Def Con from 1.73251e-006 to 1.73265e-006
Heightened Def Con from 1.73276e-006 to 1.73576e-006
Heightened Def Con from 1.73661e-006 to 1.73961e-006
Heightened Def Con from 1.74477e-006 +to 1.74489e-006
Heightened Def Con from 1.74518e-006 ++++++++++++++to 1.7452e-006
Heightened Def Con from 1.7452e-006 to 1.7452e-006
Heightened Def Con from 1.7452e-006 ++++++++to 1.7452e-006
Heightened Def Con from 1.7452e-006 ++++++++to 1.7452e-006
Heightened Def Con from 1.7452e-006 ++to 1.7452e-006
Heightened Def Con from 1.7452e-006 ++++to 1.7452e-006
Heightened Def Con from 1.7452e-006 ++to 1.7452e-006
Heightened Def Con from 1.7452e-006 +++++to 1.7452e-006
Heightened Def Con from 1.7452e-006 to 1.7452e-006
Heightened Def Con from 1.7452e-006 to 1.74522e-006
Heightened Def Con from 1.74522e-006 +++to 1.74523e-006
Heightened Def Con from 1.74523e-006 ++to 1.74523e-006
Heightened Def Con from 1.74523e-006 ++++++++++++to 1.74523e-006
Heightened Def Con from 1.74523e-006 +to 1.74525e-006
Heightened Def Con from 1.74525e-006 ++++to 1.74525e-006
Heightened Def Con from 1.74525e-006 +++++++++++++to 1.74537e-006
Heightened Def Con from 1.74537e-006 to 1.74837e-006
Heightened Def Con from 1.75503e-006 to 1.75503e-006
Heightened Def Con from 1.75503e-006 to 1.75605e-006
Heightened Def Con from 1.75605e-006 to 1.75817e-006
Heightened Def Con from 1.75919e-006 to 1.76219e-006
Heightened Def Con from 1.76396e-006 to 1.76696e-006
Heightened Def Con from 1.77009e-006 to 1.77021e-006
Heightened Def Con from 1.77021e-006 to 1.77023e-006
Heightened Def Con from 1.77023e-006 to 1.77024e-006
Heightened Def Con from 1.77028e-006 +to 1.77428e-006
Heightened Def Con from 1.77715e-006 ++to 1.77717e-006
Heightened Def Con from 1.77717e-006 to 1.77718e-006
Heightened Def Con from 1.77718e-006 +to 1.78031e-006
Heightened Def Con from 1.78118e-006 to 1.78231e-006
Heightened Def Con from 1.7824e-006 to 1.78241e-006
Heightened Def Con from 1.78241e-006 to 1.78246e-006
Heightened Def Con from 1.78249e-006 +++to 1.78363e-006
Heightened Def Con from 1.79357e-006 +to 1.7947e-006
Heightened Def Con from 1.79495e-006 to 1.79507e-006
Heightened Def Con from 1.79507e-006 to 1.7952e-006
Heightened Def Con from 1.7952e-006 to 1.79532e-006
Heightened Def Con from 1.79532e-006 to 1.79832e-006
Heightened Def Con from 1.8047e-006 to 1.80497e-006
Heightened Def Con from 1.80497e-006 +++to 1.80499e-006
Heightened Def Con from 1.80504e-006 to 1.80617e-006
Heightened Def Con from 1.80864e-006 +to 1.80989e-006
Heightened Def Con from 1.81002e-006 +to 1.81116e-006
Heightened Def Con from 1.81971e-006 to 1.81972e-006
Heightened Def Con from 1.81975e-006 to 1.81977e-006
Heightened Def Con from 1.81977e-006 to 1.82002e-006
Heightened Def Con from 1.82005e-006 to 1.82005e-006
Heightened Def Con from 1.82005e-006 +to 1.82318e-006
Heightened Def Con from 1.82755e-006 to 1.83055e-006
Heightened Def Con from 1.83144e-006 to 1.83346e-006
Heightened Def Con from 1.83346e-006 to 1.83946e-006
Heightened Def Con from 1.84521e-006 +++++++to 1.84521e-006
Heightened Def Con from 1.84521e-006 to 1.84521e-006
Heightened Def Con from 1.84521e-006 ++to 1.84521e-006
Heightened Def Con from 1.84521e-006 to 1.84521e-006
Heightened Def Con from 1.84521e-006 to 1.84521e-006
Heightened Def Con from 1.84521e-006 ++to 1.84523e-006
Heightened Def Con from 1.84523e-006 ++++++to 1.84523e-006
Heightened Def Con from 1.84523e-006 to 1.84523e-006
Heightened Def Con from 1.84523e-006 +++++++++to 1.84523e-006
Heightened Def Con from 1.84523e-006 to 1.84536e-006
Heightened Def Con from 1.84536e-006 to 1.84836e-006
Heightened Def Con from 1.84851e-006 to 1.85151e-006
Heightened Def Con from 1.85518e-006 to 1.85818e-006
Heightened Def Con from 1.85984e-006 +to 1.86384e-006
Heightened Def Con from 1.86428e-006 to 1.86728e-006
Heightened Def Con from 1.87028e-006 ++++++++++++++to 1.87029e-006
Heightened Def Con from 1.87029e-006 +to 1.87142e-006
Heightened Def Con from 1.87151e-006 to 1.87451e-006
Heightened Def Con from 1.87689e-006 +to 1.88089e-006
Heightened Def Con from 1.88104e-006 +++++++++++++to 1.88115e-006
Heightened Def Con from 1.88116e-006 to 1.88217e-006
Heightened Def Con from 1.88217e-006 +to 1.88617e-006
Heightened Def Con from 1.88626e-006 to 1.88926e-006
Heightened Def Con from 1.89526e-006 to 1.89526e-006
Heightened Def Con from 1.89526e-006 to 1.89526e-006
Heightened Def Con from 1.89526e-006 +++to 1.89526e-006
Heightened Def Con from 1.89526e-006 +++++to 1.89526e-006
Heightened Def Con from 1.89526e-006 to 1.89526e-006
Heightened Def Con from 1.89526e-006 ++++++++++to 1.89526e-006
Heightened Def Con from 1.89526e-006 +to 1.89528e-006
Heightened Def Con from 1.89528e-006 +++++to 1.89528e-006
Heightened Def Con from 1.89528e-006 +++++++to 1.89528e-006
Heightened Def Con from 1.89528e-006 +++++to 1.89529e-006
Heightened Def Con from 1.89529e-006 ++to 1.89929e-006
Heightened Def Con from 1.90442e-006 to 1.90543e-006
Heightened Def Con from 1.90565e-006 to 1.90865e-006
Heightened Def Con from 1.90865e-006 +to 1.90979e-006
Heightened Def Con from 1.90979e-006 +to 1.91379e-006
Heightened Def Con from 1.91449e-006 to 1.91749e-006
Heightened Def Con from 1.91995e-006 +to 1.92007e-006
Heightened Def Con from 1.92014e-006 ++to 1.92028e-006
Heightened Def Con from 1.92028e-006 +++to 1.92029e-006
Heightened Def Con from 1.92029e-006 +++++++++to 1.9203e-006
Heightened Def Con from 1.9203e-006 ++++++to 1.9203e-006
Heightened Def Con from 1.9203e-006 ++++++++++++++++to 1.9213e-006
Heightened Def Con from 1.92142e-006 +++++++++++to 1.92142e-006
Heightened Def Con from 1.92142e-006 ++++++to 1.92142e-006
Heightened Def Con from 1.92142e-006 to 1.92144e-006
Heightened Def Con from 1.92144e-006 +to 1.92145e-006
Heightened Def Con from 1.92145e-006 to 1.92147e-006
Heightened Def Con from 1.92147e-006 +to 1.92148e-006
Heightened Def Con from 1.92149e-006 to 1.92261e-006
Heightened Def Con from 1.92711e-006 +to 1.93111e-006
Heightened Def Con from 1.93211e-006 to 1.93249e-006
Heightened Def Con from 1.93274e-006 to 1.93574e-006
Heightened Def Con from 1.94474e-006 ++to 1.94499e-006
Heightened Def Con from 1.94499e-006 to 1.94511e-006
Heightened Def Con from 1.94511e-006 ++to 1.94512e-006
Heightened Def Con from 1.94512e-006 ++++to 1.94513e-006
Heightened Def Con from 1.94513e-006 +to 1.94826e-006
Heightened Def Con from 1.95427e-006 +to 1.9549e-006
Heightened Def Con from 1.9549e-006 to 1.95591e-006
Heightened Def Con from 1.95591e-006 to 1.95891e-006
Heightened Def Con from 1.9599e-006 to 1.96102e-006
Heightened Def Con from 1.96424e-006 to 1.96724e-006
Heightened Def Con from 1.981e-006 to 1.98213e-006
Heightened Def Con from 1.98237e-006 +to 1.98637e-006
Heightened Def Con from 1.99495e-006 to 1.99507e-006
Heightened Def Con from 1.99507e-006 to 1.9952e-006
Heightened Def Con from 1.9952e-006 +++++to 1.9952e-006
Heightened Def Con from 1.9952e-006 ++++++to 1.9952e-006
Heightened Def Con from 1.9952e-006 +to 1.99632e-006
Heightened Def Con from 2.00646e-006 +to 2.00958e-006
Heightened Def Con from 2.0099e-006 to 2.01092e-006
Heightened Def Con from 2.01092e-006 to 2.01392e-006
Heightened Def Con from 2.01407e-006 to 2.01707e-006
Heightened Def Con from 2.0202e-006 +to 2.02145e-006
Heightened Def Con from 2.02746e-006 to 2.03046e-006
Heightened Def Con from 2.03048e-006 to 2.03085e-006
Heightened Def Con from 2.03116e-006 +to 2.03241e-006
Heightened Def Con from 2.0325e-006 +++to 2.03266e-006
Heightened Def Con from 2.03266e-006 to 2.03566e-006
Heightened Def Con from 2.04611e-006 to 2.04911e-006
Heightened Def Con from 2.05504e-006 to 2.05505e-006
Heightened Def Con from 2.05505e-006 +to 2.05807e-006
Heightened Def Con from 2.05811e-006 +to 2.05948e-006
Heightened Def Con from 2.06017e-006 to 2.06317e-006
Heightened Def Con from 2.07002e-006 +to 2.07014e-006
Heightened Def Con from 2.07014e-006 ++++++++++to 2.07014e-006
Heightened Def Con from 2.07014e-006 +++++to 2.07014e-006
Heightened Def Con from 2.07014e-006 ++++++++++to 2.07014e-006
Heightened Def Con from 2.07014e-006 to 2.07015e-006
Heightened Def Con from 2.07015e-006 +++++to 2.07016e-006
Heightened Def Con from 2.07016e-006 +to 2.07018e-006
Heightened Def Con from 2.07018e-006 to 2.0713e-006
Heightened Def Con from 2.07718e-006 to 2.07818e-006
Heightened Def Con from 2.07818e-006 to 2.08118e-006
Heightened Def Con from 2.08223e-006 ++++++++++++++to 2.08259e-006
Heightened Def Con from 2.08259e-006 to 2.08371e-006
Heightened Def Con from 2.09467e-006 to 2.0948e-006
Heightened Def Con from 2.09509e-006 +to 2.09509e-006
Heightened Def Con from 2.09509e-006 +to 2.09509e-006
Heightened Def Con from 2.09509e-006 +to 2.09509e-006
Heightened Def Con from 2.09509e-006 ++++++++++to 2.09522e-006
Heightened Def Con from 2.09522e-006 to 2.09822e-006
Heightened Def Con from 2.10411e-006 to 2.10436e-006
Heightened Def Con from 2.11671e-006 to 2.11971e-006
Heightened Def Con from 2.12009e-006 ++++++++to 2.12009e-006
Heightened Def Con from 2.12009e-006 ++++to 2.12009e-006
Heightened Def Con from 2.12009e-006 +++++++++to 2.1201e-006
Heightened Def Con from 2.1201e-006 +++++to 2.1201e-006
Heightened Def Con from 2.1201e-006 +++to 2.12012e-006
Heightened Def Con from 2.12015e-006 +to 2.12017e-006
Heightened Def Con from 2.12017e-006 ++to 2.12417e-006
Heightened Def Con from 2.12817e-006 to 2.13117e-006
Heightened Def Con from 2.13118e-006 +to 2.13245e-006
Heightened Def Con from 2.13245e-006 to 2.1325e-006
Heightened Def Con from 2.1325e-006 to 2.13363e-006
Heightened Def Con from 2.13363e-006 to 2.13675e-006
Heightened Def Con from 2.14502e-006 +to 2.14502e-006
Heightened Def Con from 2.14502e-006 +++to 2.14514e-006
Heightened Def Con from 2.14514e-006 ++to 2.14514e-006
Heightened Def Con from 2.14514e-006 +to 2.14514e-006
Heightened Def Con from 2.14514e-006 +to 2.14514e-006
Heightened Def Con from 2.14514e-006 +++to 2.14516e-006
Heightened Def Con from 2.14516e-006 to 2.14516e-006
Heightened Def Con from 2.14516e-006 ++to 2.14516e-006
Heightened Def Con from 2.14516e-006 +++++to 2.14516e-006
Heightened Def Con from 2.14516e-006 ++to 2.14517e-006
Heightened Def Con from 2.14517e-006 +to 2.14517e-006
Heightened Def Con from 2.14517e-006 +to 2.14517e-006
Heightened Def Con from 2.14517e-006 ++++++to 2.14517e-006
Heightened Def Con from 2.14517e-006 to 2.14517e-006
Heightened Def Con from 2.14517e-006 to 2.14517e-006
Heightened Def Con from 2.14517e-006 +++++++++++++++++to 2.14629e-006
Heightened Def Con from 2.15506e-006 ++++to 2.15506e-006
Heightened Def Con from 2.15506e-006 +to 2.15508e-006
Heightened Def Con from 2.15508e-006 +to 2.15508e-006
Heightened Def Con from 2.15508e-006 +++++++++to 2.15508e-006
Heightened Def Con from 2.15508e-006 +++to 2.15508e-006
Heightened Def Con from 2.15508e-006 +++++++to 2.1551e-006
Heightened Def Con from 2.1551e-006 to 2.1561e-006
Heightened Def Con from 2.1561e-006 to 2.1591e-006
Heightened Def Con from 2.16007e-006 +to 2.16132e-006
Heightened Def Con from 2.1645e-006 to 2.1675e-006
Heightened Def Con from 2.16963e-006 +to 2.16976e-006
Heightened Def Con from 2.17003e-006 to 2.17116e-006
Heightened Def Con from 2.17678e-006 to 2.17705e-006
Heightened Def Con from 2.17705e-006 to 2.17817e-006
Heightened Def Con from 2.18125e-006 to 2.18227e-006
Heightened Def Con from 2.18254e-006 +++to 2.18259e-006
Heightened Def Con from 2.18259e-006 to 2.1836e-006
Heightened Def Con from 2.1836e-006 to 2.18662e-006
Heightened Def Con from 2.18665e-006 to 2.18965e-006
Heightened Def Con from 2.19378e-006 to 2.19578e-006
Heightened Def Con from 2.19578e-006 to 2.19878e-006
Heightened Def Con from 2.20514e-006 to 2.20814e-006
Heightened Def Con from 2.20914e-006 +++to 2.20989e-006
Heightened Def Con from 2.21015e-006 to 2.21315e-006
Heightened Def Con from 2.21415e-006 to 2.21715e-006
Heightened Def Con from 2.22715e-006 to 2.22816e-006
Heightened Def Con from 2.22816e-006 to 2.23116e-006
Heightened Def Con from 2.23253e-006 to 2.23253e-006
Heightened Def Con from 2.23253e-006 ++to 2.23255e-006
Heightened Def Con from 2.23255e-006 to 2.23268e-006
Heightened Def Con from 2.23268e-006 to 2.23568e-006
Heightened Def Con from 2.23577e-006 to 2.23877e-006
Heightened Def Con from 2.24568e-006 to 2.24868e-006
Heightened Def Con from 2.25506e-006 +to 2.25818e-006
Heightened Def Con from 2.25819e-006 +to 2.25833e-006
Heightened Def Con from 2.25833e-006 +++++++++++++to 2.25868e-006
Heightened Def Con from 2.25868e-006 to 2.2598e-006
Heightened Def Con from 2.25992e-006 +++++++++++++++to 2.26116e-006
Heightened Def Con from 2.26589e-006 to 2.26889e-006
Heightened Def Con from 2.27002e-006 +++++++++++++to 2.27003e-006
Heightened Def Con from 2.27004e-006 +to 2.27005e-006
Heightened Def Con from 2.27005e-006 ++++++++++++++to 2.27007e-006
Heightened Def Con from 2.27007e-006 ++++to 2.27007e-006
Heightened Def Con from 2.27007e-006 ++to 2.27008e-006
Heightened Def Con from 2.27008e-006 to 2.27121e-006
Heightened Def Con from 2.27121e-006 to 2.27421e-006
Heightened Def Con from 2.27621e-006 to 2.27633e-006
Heightened Def Con from 2.27634e-006 to 2.27672e-006
Heightened Def Con from 2.27697e-006 to 2.27711e-006
Heightened Def Con from 2.27715e-006 +to 2.28027e-006
Heightened Def Con from 2.28076e-006 to 2.2809e-006
Heightened Def Con from 2.2809e-006 to 2.28203e-006
Heightened Def Con from 2.28224e-006 +to 2.28536e-006
Heightened Def Con from 2.29515e-006 +++++++to 2.29515e-006
Heightened Def Con from 2.29515e-006 +++++++++++++++to 2.29628e-006
Heightened Def Con from 2.29628e-006 to 2.29928e-006
Heightened Def Con from 2.30428e-006 to 2.30466e-006
Heightened Def Con from 2.30491e-006 to 2.30504e-006
Heightened Def Con from 2.30504e-006 to 2.30605e-006
Heightened Def Con from 2.30605e-006 to 2.30818e-006
Heightened Def Con from 2.30865e-006 to 2.3087e-006
Heightened Def Con from 2.3087e-006 to 2.30982e-006
Heightened Def Con from 2.31017e-006 to 2.31317e-006
Heightened Def Con from 2.32014e-006 ++++++++to 2.32016e-006
Heightened Def Con from 2.32016e-006 to 2.32018e-006
Heightened Def Con from 2.32018e-006 ++++to 2.3203e-006
Heightened Def Con from 2.3203e-006 to 2.3233e-006
Heightened Def Con from 2.32568e-006 to 2.32669e-006
Heightened Def Con from 2.32669e-006 to 2.32707e-006
Heightened Def Con from 2.32707e-006 +to 2.33107e-006
Heightened Def Con from 2.33235e-006 +to 2.33635e-006
Heightened Def Con from 2.33635e-006 to 2.33935e-006
Heightened Def Con from 2.34524e-006 ++to 2.34524e-006
Heightened Def Con from 2.34524e-006 +++to 2.34524e-006
Heightened Def Con from 2.34524e-006 +++to 2.34524e-006
Heightened Def Con from 2.34524e-006 to 2.34524e-006
Heightened Def Con from 2.34524e-006 ++++++++++++++to 2.34525e-006
Heightened Def Con from 2.34525e-006 +++++++++++to 2.34527e-006
Heightened Def Con from 2.34527e-006 +to 2.34529e-006
Heightened Def Con from 2.34529e-006 to 2.34641e-006
Heightened Def Con from 2.35505e-006 to 2.35508e-006
Heightened Def Con from 2.35508e-006 to 2.3561e-006
Heightened Def Con from 2.35619e-006 to 2.35919e-006
Heightened Def Con from 2.35981e-006 to 2.36093e-006
Heightened Def Con from 2.36342e-006 to 2.36642e-006
Heightened Def Con from 2.36708e-006 to 2.37008e-006
Heightened Def Con from 2.37008e-006 to 2.3702e-006
Heightened Def Con from 2.3702e-006 +++to 2.37022e-006
Heightened Def Con from 2.37022e-006 +++++to 2.37034e-006
Heightened Def Con from 2.37034e-006 to 2.37334e-006
Heightened Def Con from 2.37651e-006 to 2.37763e-006
Heightened Def Con from 2.3812e-006 ++to 2.38249e-006
Heightened Def Con from 2.38251e-006 ++to 2.38265e-006
Heightened Def Con from 2.38265e-006 to 2.38565e-006
Heightened Def Con from 2.38747e-006 to 2.39047e-006
Heightened Def Con from 2.39547e-006 to 2.39847e-006
Heightened Def Con from 2.40485e-006 to 2.40499e-006
Heightened Def Con from 2.40499e-006 +to 2.405e-006
Heightened Def Con from 2.40503e-006 to 2.40616e-006
Heightened Def Con from 2.40891e-006 to 2.41103e-006
Heightened Def Con from 2.4183e-006 to 2.41942e-006
Heightened Def Con from 2.41967e-006 +to 2.4198e-006
Heightened Def Con from 2.4198e-006 to 2.41992e-006
Heightened Def Con from 2.42012e-006 +++to 2.42014e-006
Heightened Def Con from 2.42014e-006 to 2.42126e-006
Heightened Def Con from 2.42739e-006 +to 2.43051e-006
Heightened Def Con from 2.4317e-006 to 2.43208e-006
Heightened Def Con from 2.44455e-006 ++to 2.44467e-006
Heightened Def Con from 2.44493e-006 +to 2.44505e-006
Heightened Def Con from 2.44505e-006 to 2.44505e-006
Heightened Def Con from 2.44505e-006 +to 2.44507e-006
Heightened Def Con from 2.44507e-006 +++++++++to 2.44507e-006
Heightened Def Con from 2.44507e-006 to 2.44507e-006
Heightened Def Con from 2.44507e-006 ++++++++to 2.44507e-006
Heightened Def Con from 2.44507e-006 +++to 2.44507e-006
Heightened Def Con from 2.44507e-006 +++to 2.44507e-006
Heightened Def Con from 2.44507e-006 ++++++++++++++to 2.44509e-006
Heightened Def Con from 2.44509e-006 to 2.44509e-006
Heightened Def Con from 2.44509e-006 ++++++++++++++++to 2.44521e-006
Heightened Def Con from 2.44521e-006 to 2.44821e-006
Heightened Def Con from 2.45059e-006 to 2.45359e-006
Heightened Def Con from 2.45559e-006 to 2.45859e-006
Heightened Def Con from 2.45959e-006 to 2.45996e-006
Heightened Def Con from 2.45996e-006 +++++to 2.46312e-006
Heightened Def Con from 2.47009e-006 ++++++++++to 2.4701e-006
Heightened Def Con from 2.4701e-006 +++to 2.47012e-006
Heightened Def Con from 2.47012e-006 ++++++++++to 2.47014e-006
Heightened Def Con from 2.47014e-006 to 2.47014e-006
Heightened Def Con from 2.47014e-006 ++++++to 2.47015e-006
Heightened Def Con from 2.47015e-006 +to 2.47028e-006
Heightened Def Con from 2.47028e-006 to 2.47328e-006
Heightened Def Con from 2.4754e-006 to 2.47653e-006
Heightened Def Con from 2.47653e-006 to 2.4769e-006
Heightened Def Con from 2.47767e-006 to 2.48067e-006
Heightened Def Con from 2.48298e-006 to 2.4841e-006
Heightened Def Con from 2.48414e-006 to 2.48614e-006
Heightened Def Con from 2.48614e-006 to 2.48914e-006
Heightened Def Con from 2.49615e-006 to 2.49915e-006
Heightened Def Con from 2.50504e-006 ++to 2.50905e-006
Heightened Def Con from 2.50905e-006 +to 2.51218e-006
Heightened Def Con from 2.51482e-006 to 2.51782e-006
Heightened Def Con from 2.51982e-006 to 2.52007e-006
Heightened Def Con from 2.52007e-006 to 2.5202e-006
Heightened Def Con from 2.52036e-006 to 2.52336e-006
Heightened Def Con from 2.52724e-006 to 2.52825e-006
Heightened Def Con from 2.5321e-006 to 2.53247e-006
Heightened Def Con from 2.53269e-006 to 2.53569e-006
Heightened Def Con from 2.54463e-006 to 2.54476e-006
Heightened Def Con from 2.54476e-006 +to 2.54488e-006
Heightened Def Con from 2.54488e-006 +to 2.54888e-006
Heightened Def Con from 2.55499e-006 to 2.55501e-006
Heightened Def Con from 2.55501e-006 to 2.55515e-006
Heightened Def Con from 2.55515e-006 to 2.55815e-006
Heightened Def Con from 2.55996e-006 to 2.56001e-006
Heightened Def Con from 2.56001e-006 ++to 2.56115e-006
Heightened Def Con from 2.57001e-006 +++to 2.57001e-006
Heightened Def Con from 2.57001e-006 +to 2.57003e-006
Heightened Def Con from 2.57003e-006 ++++++++++++++to 2.57015e-006
Heightened Def Con from 2.57015e-006 +++++++++++++++to 2.57017e-006
Heightened Def Con from 2.57017e-006 ++++++++++++++++to 2.57029e-006
Heightened Def Con from 2.57073e-006 to 2.57373e-006
Heightened Def Con from 2.58126e-006 to 2.58226e-006
Heightened Def Con from 2.58226e-006 to 2.58263e-006
Heightened Def Con from 2.58263e-006 to 2.58563e-006
Heightened Def Con from 2.58732e-006 to 2.59032e-006
Heightened Def Con from 2.59432e-006 to 2.59444e-006
Heightened Def Con from 2.59517e-006 +to 2.59529e-006
Heightened Def Con from 2.59529e-006 ++to 2.59529e-006
Heightened Def Con from 2.59529e-006 +++++to 2.59529e-006
Heightened Def Con from 2.59529e-006 +to 2.59842e-006
Heightened Def Con from 2.60486e-006 to 2.60598e-006
Heightened Def Con from 2.60864e-006 +to 2.60989e-006
Heightened Def Con from 2.61028e-006 to 2.61328e-006
Heightened Def Con from 2.62006e-006 to 2.62018e-006
Heightened Def Con from 2.62018e-006 +to 2.62418e-006
Heightened Def Con from 2.62818e-006 to 2.63118e-006
Heightened Def Con from 2.63268e-006 to 2.63568e-006
Heightened Def Con from 2.63649e-006 to 2.63949e-006
Heightened Def Con from 2.64518e-006 +++to 2.64518e-006
Heightened Def Con from 2.64518e-006 +++to 2.64519e-006
Heightened Def Con from 2.64519e-006 ++to 2.64519e-006
Heightened Def Con from 2.64519e-006 to 2.64519e-006
Heightened Def Con from 2.64519e-006 ++++to 2.64522e-006
Heightened Def Con from 2.64523e-006 ++++++to 2.64523e-006
Heightened Def Con from 2.64523e-006 +++++to 2.64523e-006
Heightened Def Con from 2.64523e-006 +to 2.64523e-006
Heightened Def Con from 2.64523e-006 to 2.64525e-006
Heightened Def Con from 2.64528e-006 +to 2.6464e-006
Heightened Def Con from 2.65416e-006 to 2.6543e-006
Heightened Def Con from 2.65476e-006 to 2.65491e-006
Heightened Def Con from 2.65494e-006 ++to 2.65819e-006
Heightened Def Con from 2.65919e-006 to 2.65956e-006
Heightened Def Con from 2.66977e-006 to 2.66989e-006
Heightened Def Con from 2.66989e-006 +to 2.66991e-006
Heightened Def Con from 2.66991e-006 to 2.66991e-006
Heightened Def Con from 2.66991e-006 ++to 2.67004e-006
Heightened Def Con from 2.67004e-006 to 2.67004e-006
Heightened Def Con from 2.67004e-006 +to 2.67004e-006
Heightened Def Con from 2.67004e-006 +++++to 2.67004e-006
Heightened Def Con from 2.67004e-006 +++++++to 2.67004e-006
Heightened Def Con from 2.67004e-006 ++to 2.67004e-006
Heightened Def Con from 2.67004e-006 to 2.67004e-006
Heightened Def Con from 2.67004e-006 ++++++to 2.67005e-006
Heightened Def Con from 2.67005e-006 ++to 2.67005e-006
Heightened Def Con from 2.67005e-006 +++++++++++++++to 2.67007e-006
Heightened Def Con from 2.67007e-006 +++++++++++++++to 2.6702e-006
Heightened Def Con from 2.6702e-006 to 2.6732e-006
Heightened Def Con from 2.67723e-006 ++to 2.67724e-006
Heightened Def Con from 2.67724e-006 to 2.67726e-006
Heightened Def Con from 2.67726e-006 +to 2.67726e-006
Heightened Def Con from 2.67726e-006 ++to 2.67728e-006
Heightened Def Con from 2.67728e-006 to 2.67729e-006
Heightened Def Con from 2.67729e-006 +to 2.67731e-006
Heightened Def Con from 2.67731e-006 +to 2.68043e-006
Heightened Def Con from 2.68144e-006 to 2.68346e-006
Heightened Def Con from 2.68346e-006 to 2.68946e-006
Heightened Def Con from 2.6949e-006 +to 2.69502e-006
Heightened Def Con from 2.69527e-006 +++++to 2.69527e-006
Heightened Def Con from 2.69527e-006 to 2.69529e-006
Heightened Def Con from 2.69529e-006 +to 2.69929e-006
Heightened Def Con from 2.70466e-006 to 2.70468e-006
Heightened Def Con from 2.70468e-006 to 2.70481e-006
Heightened Def Con from 2.70481e-006 to 2.70593e-006
Heightened Def Con from 2.70864e-006 to 2.70977e-006
Heightened Def Con from 2.70989e-006 to 2.71003e-006
Heightened Def Con from 2.71003e-006 to 2.71104e-006
Heightened Def Con from 2.71126e-006 to 2.71426e-006
Heightened Def Con from 2.71426e-006 to 2.71726e-006
Heightened Def Con from 2.72026e-006 +++++++++++to 2.72028e-006
Heightened Def Con from 2.72028e-006 +to 2.72029e-006
Heightened Def Con from 2.72029e-006 to 2.72029e-006
Heightened Def Con from 2.72029e-006 ++++to 2.72029e-006
Heightened Def Con from 2.72029e-006 to 2.72029e-006
Heightened Def Con from 2.72029e-006 ++to 2.72031e-006
Heightened Def Con from 2.72031e-006 to 2.72144e-006
Heightened Def Con from 2.72762e-006 to 2.73062e-006
Heightened Def Con from 2.73119e-006 ++++to 2.73247e-006
Heightened Def Con from 2.73249e-006 ++++++++++to 2.73252e-006
Heightened Def Con from 2.73252e-006 ++++++++++to 2.73956e-006
Heightened Def Con from 2.74513e-006 to 2.74513e-006
Heightened Def Con from 2.74513e-006 ++++++++++to 2.74525e-006
Heightened Def Con from 2.74525e-006 ++++++++++++to 2.74525e-006
Heightened Def Con from 2.74525e-006 +++to 2.74525e-006
Heightened Def Con from 2.74525e-006 to 2.74525e-006
Heightened Def Con from 2.74525e-006 +to 2.74525e-006
Heightened Def Con from 2.74525e-006 +++++to 2.74525e-006
Heightened Def Con from 2.74525e-006 ++to 2.74525e-006
Heightened Def Con from 2.74525e-006 +++to 2.74528e-006
Heightened Def Con from 2.74528e-006 +++to 2.7453e-006
Heightened Def Con from 2.7453e-006 +++++to 2.7453e-006
Heightened Def Con from 2.7453e-006 +to 2.7453e-006
Heightened Def Con from 2.7453e-006 ++++to 2.7453e-006
Heightened Def Con from 2.7453e-006 ++to 2.7453e-006
Heightened Def Con from 2.7453e-006 +++to 2.74532e-006
Heightened Def Con from 2.74532e-006 to 2.74532e-006
Heightened Def Con from 2.74532e-006 ++++to 2.74533e-006
Heightened Def Con from 2.74533e-006 +to 2.74933e-006
Heightened Def Con from 2.75477e-006 to 2.7559e-006
Heightened Def Con from 2.7559e-006 to 2.7589e-006
Heightened Def Con from 2.7589e-006 +to 2.7639e-006
Heightened Def Con from 2.77066e-006 to 2.77366e-006
Heightened Def Con from 2.77709e-006 to 2.77723e-006
Heightened Def Con from 2.77723e-006 ++++to 2.77725e-006
Heightened Def Con from 2.77728e-006 to 2.7784e-006
Heightened Def Con from 2.77844e-006 to 2.78144e-006
Heightened Def Con from 2.78257e-006 to 2.78557e-006
Heightened Def Con from 2.78621e-006 +to 2.78921e-006
Heightened Def Con from 2.79509e-006 +++to 2.79521e-006
Heightened Def Con from 2.79524e-006 ++++to 2.79524e-006
Heightened Def Con from 2.79524e-006 ++to 2.79524e-006
Heightened Def Con from 2.79524e-006 +++++to 2.79524e-006
Heightened Def Con from 2.79524e-006 to 2.79525e-006
Heightened Def Con from 2.79525e-006 ++to 2.79526e-006
Heightened Def Con from 2.79526e-006 to 2.79526e-006
Heightened Def Con from 2.79526e-006 ++to 2.79526e-006
Heightened Def Con from 2.79526e-006 to 2.79639e-006
Heightened Def Con from 2.79639e-006 to 2.79939e-006
Heightened Def Con from 2.80439e-006 +to 2.80839e-006
Heightened Def Con from 2.80857e-006 ++to 2.80861e-006
Heightened Def Con from 2.80865e-006 +to 2.8099e-006
Heightened Def Con from 2.81002e-006 to 2.81115e-006
Heightened Def Con from 2.81411e-006 to 2.81711e-006
Heightened Def Con from 2.82111e-006 to 2.82411e-006
Heightened Def Con from 2.82711e-006 +to 2.82725e-006
Heightened Def Con from 2.82725e-006 to 2.82837e-006
Heightened Def Con from 2.83259e-006 to 2.8336e-006
Heightened Def Con from 2.84421e-006 to 2.84446e-006
Heightened Def Con from 2.84471e-006 to 2.84496e-006
Heightened Def Con from 2.84499e-006 to 2.84512e-006
Heightened Def Con from 2.84512e-006 to 2.84512e-006
Heightened Def Con from 2.84512e-006 ++++to 2.84513e-006
Heightened Def Con from 2.84513e-006 ++to 2.84513e-006
Heightened Def Con from 2.84513e-006 +to 2.84513e-006
Heightened Def Con from 2.84513e-006 ++to 2.84513e-006
Heightened Def Con from 2.84513e-006 +to 2.84513e-006
Heightened Def Con from 2.84513e-006 to 2.84513e-006
Heightened Def Con from 2.84513e-006 ++to 2.84513e-006
Heightened Def Con from 2.84513e-006 ++++to 2.84513e-006
Heightened Def Con from 2.84513e-006 +to 2.84627e-006
Heightened Def Con from 2.84702e-006 to 2.85002e-006
Heightened Def Con from 2.85504e-006 to 2.85616e-006
Heightened Def Con from 2.85983e-006 to 2.86096e-006
Heightened Def Con from 2.86099e-006 to 2.86399e-006
Heightened Def Con from 2.86969e-006 to 2.86982e-006
Heightened Def Con from 2.86982e-006 to 2.86994e-006
Heightened Def Con from 2.86994e-006 to 2.87007e-006
Heightened Def Con from 2.87007e-006 +to 2.87019e-006
Heightened Def Con from 2.87019e-006 +to 2.87121e-006
Heightened Def Con from 2.87121e-006 to 2.87421e-006
Heightened Def Con from 2.87422e-006 to 2.87635e-006
Heightened Def Con from 2.87715e-006 to 2.87827e-006
Heightened Def Con from 2.87827e-006 to 2.8804e-006
Heightened Def Con from 2.88115e-006 to 2.88227e-006
Heightened Def Con from 2.88236e-006 to 2.88261e-006
Heightened Def Con from 2.88261e-006 to 2.88561e-006
Heightened Def Con from 2.89516e-006 ++++++++++++++to 2.89518e-006
Heightened Def Con from 2.89518e-006 +to 2.89918e-006
Heightened Def Con from 2.90493e-006 ++to 2.90494e-006
Heightened Def Con from 2.90494e-006 to 2.90496e-006
Heightened Def Con from 2.90496e-006 +to 2.90808e-006
Heightened Def Con from 2.90865e-006 ++to 2.90993e-006
Heightened Def Con from 2.90997e-006 to 2.91001e-006
Heightened Def Con from 2.91001e-006 to 2.91103e-006
Heightened Def Con from 2.91103e-006 to 2.91403e-006
Heightened Def Con from 2.91415e-006 to 2.91715e-006
Heightened Def Con from 2.92015e-006 to 2.92028e-006
Heightened Def Con from 2.92028e-006 ++++++++++++++++to 2.92128e-006
Heightened Def Con from 2.9214e-006 ++++++++++to 2.92153e-006
Heightened Def Con from 2.92155e-006 to 2.92455e-006
Heightened Def Con from 2.92778e-006 to 2.93078e-006
Heightened Def Con from 2.93166e-006 to 2.93466e-006
Heightened Def Con from 2.94515e-006 to 2.94627e-006
Heightened Def Con from 2.95502e-006 to 2.95504e-006
Heightened Def Con from 2.95504e-006 +to 2.95505e-006
Heightened Def Con from 2.95505e-006 to 2.95505e-006
Heightened Def Con from 2.95505e-006 ++to 2.95507e-006
Heightened Def Con from 2.95507e-006 to 2.95509e-006
Heightened Def Con from 2.95509e-006 to 2.9551e-006
Heightened Def Con from 2.9551e-006 to 2.95623e-006
Heightened Def Con from 2.96006e-006 to 2.96118e-006
Heightened Def Con from 2.96129e-006 to 2.96429e-006
Heightened Def Con from 2.96986e-006 to 2.96999e-006
Heightened Def Con from 2.96999e-006 to 2.97011e-006
Heightened Def Con from 2.97011e-006 +++++++to 2.97011e-006
Heightened Def Con from 2.97011e-006 +++++to 2.97011e-006
Heightened Def Con from 2.97011e-006 ++to 2.97013e-006
Heightened Def Con from 2.97013e-006 +++++to 2.97013e-006
Heightened Def Con from 2.97013e-006 +to 2.97015e-006
Heightened Def Con from 2.97015e-006 to 2.97015e-006
Heightened Def Con from 2.97015e-006 ++++++++to 2.97015e-006
Heightened Def Con from 2.97015e-006 ++++++++++++++to 2.97017e-006
Heightened Def Con from 2.97017e-006 ++++++to 2.97018e-006
Heightened Def Con from 2.97018e-006 to 2.9702e-006
Heightened Def Con from 2.9702e-006 to 2.97132e-006
Heightened Def Con from 2.97707e-006 +to 2.98107e-006
Heightened Def Con from 2.98282e-006 to 2.98582e-006
Heightened Def Con from 2.98646e-006 to 2.98946e-006
Heightened Def Con from 2.9949e-006 +to 2.99503e-006
Heightened Def Con from 2.99528e-006 to 2.9964e-006
Heightened Def Con from 3.00503e-006 to 3.00504e-006
Heightened Def Con from 3.00508e-006 +to 3.00508e-006
Heightened Def Con from 3.00508e-006 to 3.00508e-006
Heightened Def Con from 3.00508e-006 to 3.0062e-006
Heightened Def Con from 3.01732e-006 to 3.01944e-006
Heightened Def Con from 3.01969e-006 to 3.01982e-006
Heightened Def Con from 3.02006e-006 ++++++++++++++to 3.02019e-006
Heightened Def Con from 3.02019e-006 ++++++++++++++++to 3.02031e-006
Heightened Def Con from 3.02031e-006 +++++++++++++++to 3.02033e-006
Heightened Def Con from 3.02033e-006 +++++to 3.02033e-006
Heightened Def Con from 3.02033e-006 +to 3.02045e-006
Heightened Def Con from 3.02081e-006 to 3.02381e-006
Heightened Def Con from 3.03354e-006 to 3.03954e-006
Heightened Def Con from 3.0451e-006 +to 3.04523e-006
Heightened Def Con from 3.04523e-006 to 3.04523e-006
Heightened Def Con from 3.04523e-006 +to 3.04523e-006
Heightened Def Con from 3.04523e-006 ++++++++++++to 3.04523e-006
Heightened Def Con from 3.04523e-006 ++++to 3.04523e-006
Heightened Def Con from 3.04523e-006 ++to 3.04523e-006
Heightened Def Con from 3.04523e-006 +++to 3.04525e-006
Heightened Def Con from 3.04525e-006 ++++++++++++++++to 3.04637e-006
Heightened Def Con from 3.0519e-006 to 3.0549e-006
Heightened Def Con from 3.06002e-006 +to 3.06004e-006
Heightened Def Con from 3.06004e-006 ++++++++to 3.06409e-006
Heightened Def Con from 3.06999e-006 to 3.07024e-006
Heightened Def Con from 3.07024e-006 to 3.07136e-006
Heightened Def Con from 3.07749e-006 to 3.08049e-006
Heightened Def Con from 3.08115e-006 +++to 3.08124e-006
Heightened Def Con from 3.08124e-006 to 3.08225e-006
Heightened Def Con from 3.08229e-006 +to 3.08629e-006
Heightened Def Con from 3.09483e-006 ++to 3.09495e-006
Heightened Def Con from 3.0952e-006 to 3.09633e-006
Heightened Def Con from 3.10489e-006 to 3.10602e-006
Heightened Def Con from 3.10792e-006 to 3.10829e-006
Heightened Def Con from 3.10862e-006 ++++++++++to 3.11118e-006
Heightened Def Con from 3.1154e-006 to 3.1184e-006
Heightened Def Con from 3.11977e-006 +to 3.1199e-006
Heightened Def Con from 3.12007e-006 to 3.1202e-006
Heightened Def Con from 3.1202e-006 ++to 3.1202e-006
Heightened Def Con from 3.1202e-006 +++++to 3.12021e-006
Heightened Def Con from 3.12021e-006 to 3.12021e-006
Heightened Def Con from 3.12021e-006 ++++++++++++++to 3.12023e-006
Heightened Def Con from 3.12023e-006 +++to 3.12423e-006
Heightened Def Con from 3.12715e-006 ++++to 3.12717e-006
Heightened Def Con from 3.12717e-006 to 3.12717e-006
Heightened Def Con from 3.12717e-006 +to 3.12718e-006
Heightened Def Con from 3.12718e-006 +to 3.1272e-006
Heightened Def Con from 3.1272e-006 to 3.12832e-006
Heightened Def Con from 3.13235e-006 +to 3.13635e-006
Heightened Def Con from 3.13635e-006 to 3.13935e-006
Heightened Def Con from 3.14522e-006 +++++to 3.14522e-006
Heightened Def Con from 3.14522e-006 ++++to 3.14522e-006
Heightened Def Con from 3.14522e-006 ++++++to 3.14522e-006
Heightened Def Con from 3.14522e-006 +++++to 3.14522e-006
Heightened Def Con from 3.14522e-006 to 3.14522e-006
Heightened Def Con from 3.14522e-006 +++++++to 3.14522e-006
Heightened Def Con from 3.14522e-006 ++to 3.14522e-006
Heightened Def Con from 3.14522e-006 +to 3.14524e-006
Heightened Def Con from 3.14524e-006 to 3.14524e-006
Heightened Def Con from 3.14524e-006 +to 3.14524e-006
Heightened Def Con from 3.14524e-006 +to 3.14524e-006
Heightened Def Con from 3.14524e-006 +++++to 3.14526e-006
Heightened Def Con from 3.14526e-006 to 3.14538e-006
Heightened Def Con from 3.14538e-006 to 3.14838e-006
Heightened Def Con from 3.14851e-006 to 3.15151e-006
Heightened Def Con from 3.15551e-006 to 3.15851e-006
Heightened Def Con from 3.15863e-006 to 3.15976e-006
Heightened Def Con from 3.16011e-006 to 3.16311e-006
Heightened Def Con from 3.16973e-006 +to 3.16986e-006
Heightened Def Con from 3.16986e-006 to 3.16998e-006
Heightened Def Con from 3.16998e-006 to 3.17011e-006
Heightened Def Con from 3.17011e-006 +++++++++++++++to 3.17023e-006
Heightened Def Con from 3.17026e-006 ++to 3.17026e-006
Heightened Def Con from 3.17026e-006 +++++++++to 3.17026e-006
Heightened Def Con from 3.17026e-006 +++++++++++++++to 3.17138e-006
Heightened Def Con from 3.17138e-006 to 3.17438e-006
Heightened Def Con from 3.17726e-006 to 3.17726e-006
Heightened Def Con from 3.17726e-006 ++to 3.17727e-006
Heightened Def Con from 3.17727e-006 to 3.17729e-006
Heightened Def Con from 3.17732e-006 +++++++to 3.17732e-006
Heightened Def Con from 3.17732e-006 +to 3.17734e-006
Heightened Def Con from 3.17734e-006 +to 3.18046e-006
Heightened Def Con from 3.18046e-006 to 3.18084e-006
Heightened Def Con from 3.18115e-006 +to 3.18117e-006
Heightened Def Con from 3.18117e-006 +++to 3.1822e-006
Heightened Def Con from 3.18225e-006 +to 3.18625e-006
Heightened Def Con from 3.19491e-006 to 3.19603e-006
Heightened Def Con from 3.197e-006 to 3.2e-006
Heightened Def Con from 3.206e-006 to 3.20812e-006
Heightened Def Con from 3.20889e-006 to 3.21001e-006
Heightened Def Con from 3.21001e-006 +to 3.21116e-006
Heightened Def Con from 3.21403e-006 to 3.21703e-006
Heightened Def Con from 3.22003e-006 ++to 3.22016e-006
[...]
Heightened Def Con from 9.19522e-006 +++to 9.19523e-006
Heightened Def Con from 9.19523e-006 to 9.19636e-006
Heightened Def Con from 9.205e-006 to 9.20502e-006
Heightened Def Con from 9.20507e-006 to 9.2062e-006
Heightened Def Con from 9.20887e-006 to 9.21e-006
Heightened Def Con from 9.21012e-006 to 9.21312e-006
Heightened Def Con from 9.22013e-006 +to 9.22014e-006
Heightened Def Con from 9.22014e-006 to 9.22015e-006
Heightened Def Con from 9.22015e-006 to 9.22015e-006
Heightened Def Con from 9.22015e-006 +to 9.22117e-006
Heightened Def Con from 9.22117e-006 to 9.22417e-006
Heightened Def Con from 9.22717e-006 to 9.22729e-006
Heightened Def Con from 9.22729e-006 to 9.22842e-006
Heightened Def Con from 9.23117e-006 +++++++++++to 9.23245e-006
Heightened Def Con from 9.23258e-006 to 9.23371e-006
Heightened Def Con from 9.23402e-006 to 9.23902e-006
Heightened Def Con from 9.24514e-006 to 9.24527e-006
Heightened Def Con from 9.24527e-006 to 9.24639e-006
Heightened Def Con from 9.25908e-006 to 9.25946e-006
Heightened Def Con from 9.26015e-006 to 9.26315e-006
Heightened Def Con from 9.26427e-006 to 9.26727e-006
Heightened Def Con from 9.27027e-006 to 9.27129e-006
Heightened Def Con from 9.27129e-006 to 9.27429e-006
Heightened Def Con from 9.27716e-006 to 9.27718e-006
Heightened Def Con from 9.27718e-006 +to 9.27719e-006
Heightened Def Con from 9.27719e-006 +to 9.28032e-006
Heightened Def Con from 9.28163e-006 to 9.28201e-006
Heightened Def Con from 9.28276e-006 to 9.28576e-006
Heightened Def Con from 9.28735e-006 to 9.29035e-006
Heightened Def Con from 9.29523e-006 +to 9.29524e-006
Heightened Def Con from 9.29524e-006 +++to 9.29526e-006
Heightened Def Con from 9.29526e-006 +++++to 9.29526e-006
Heightened Def Con from 9.29526e-006 ++to 9.29538e-006
Heightened Def Con from 9.29538e-006 to 9.29838e-006
Heightened Def Con from 9.30848e-006 +to 9.30986e-006
Heightened Def Con from 9.31003e-006 to 9.31116e-006
Heightened Def Con from 9.31908e-006 +++++++to 9.32009e-006
Heightened Def Con from 9.32009e-006 ++++to 9.32009e-006
Heightened Def Con from 9.32009e-006 ++++++++to 9.32011e-006
Heightened Def Con from 9.32011e-006 +to 9.32323e-006
Heightened Def Con from 9.32836e-006 to 9.33048e-006
Heightened Def Con from 9.33123e-006 +to 9.33261e-006
Heightened Def Con from 9.33261e-006 to 9.33561e-006
Heightened Def Con from 9.33637e-006 to 9.33937e-006
Heightened Def Con from 9.34525e-006 to 9.34525e-006
Heightened Def Con from 9.34525e-006 +++++++++++to 9.34537e-006
Heightened Def Con from 9.34537e-006 to 9.34837e-006
Heightened Def Con from 9.35437e-006 +to 9.35837e-006
Heightened Def Con from 9.35859e-006 +to 9.35872e-006
Heightened Def Con from 9.35872e-006 to 9.35985e-006
Heightened Def Con from 9.35999e-006 ++to 9.36312e-006
Heightened Def Con from 9.36422e-006 to 9.36722e-006
Heightened Def Con from 9.37009e-006 to 9.37022e-006
Heightened Def Con from 9.37022e-006 +++to 9.37022e-006
Heightened Def Con from 9.37022e-006 +++to 9.37023e-006
Heightened Def Con from 9.37023e-006 +++++++to 9.37023e-006
Heightened Def Con from 9.37023e-006 +++++++++++to 9.37036e-006
Heightened Def Con from 9.37036e-006 to 9.37336e-006
Heightened Def Con from 9.37638e-006 to 9.37675e-006
Heightened Def Con from 9.37675e-006 to 9.37713e-006
Heightened Def Con from 9.37716e-006 +to 9.37717e-006
Heightened Def Con from 9.37717e-006 +to 9.37719e-006
Heightened Def Con from 9.37719e-006 ++++++++++++to 9.3772e-006
Heightened Def Con from 9.37726e-006 to 9.37828e-006
Heightened Def Con from 9.37828e-006 to 9.38128e-006
Heightened Def Con from 9.38215e-006 to 9.38253e-006
Heightened Def Con from 9.38253e-006 +to 9.38953e-006
Heightened Def Con from 9.39453e-006 to 9.39466e-006
Heightened Def Con from 9.39526e-006 to 9.39528e-006
Heightened Def Con from 9.39528e-006 +to 9.39528e-006
Heightened Def Con from 9.39528e-006 +++++++++++++++to 9.3964e-006
Heightened Def Con from 9.40017e-006 to 9.40317e-006
Heightened Def Con from 9.40499e-006 to 9.40611e-006
Heightened Def Con from 9.41999e-006 +to 9.42012e-006
Heightened Def Con from 9.42012e-006 ++to 9.42412e-006
Heightened Def Con from 9.42712e-006 +to 9.43112e-006
Heightened Def Con from 9.43212e-006 to 9.43249e-006
Heightened Def Con from 9.4325e-006 +++++to 9.4325e-006
Heightened Def Con from 9.4325e-006 +++to 9.43564e-006
Heightened Def Con from 9.43647e-006 to 9.43947e-006
Heightened Def Con from 9.44235e-006 to 9.44535e-006
Heightened Def Con from 9.44535e-006 +++to 9.44647e-006
Heightened Def Con from 9.45497e-006 to 9.45499e-006
Heightened Def Con from 9.45502e-006 to 9.45503e-006
Heightened Def Con from 9.45503e-006 +to 9.45816e-006
Heightened Def Con from 9.45865e-006 +++++to 9.45879e-006
Heightened Def Con from 9.46001e-006 to 9.46103e-006
Heightened Def Con from 9.46106e-006 to 9.46406e-006
Heightened Def Con from 9.47005e-006 +to 9.47018e-006
Heightened Def Con from 9.47018e-006 +to 9.4703e-006
Heightened Def Con from 9.4703e-006 to 9.4733e-006
Heightened Def Con from 9.47732e-006 +to 9.48044e-006
Heightened Def Con from 9.48119e-006 to 9.4812e-006
Heightened Def Con from 9.4812e-006 +to 9.48245e-006
Heightened Def Con from 9.48273e-006 to 9.48573e-006
Heightened Def Con from 9.4924e-006 to 9.49452e-006
Heightened Def Con from 9.49477e-006 to 9.4949e-006
Heightened Def Con from 9.4949e-006 to 9.49502e-006
Heightened Def Con from 9.49502e-006 ++to 9.49515e-006
Heightened Def Con from 9.49515e-006 to 9.49516e-006
Heightened Def Con from 9.49516e-006 to 9.49516e-006
Heightened Def Con from 9.49516e-006 +to 9.49516e-006
Heightened Def Con from 9.49516e-006 +++++++++++++++to 9.49518e-006
Heightened Def Con from 9.49518e-006 to 9.49518e-006
Heightened Def Con from 9.49518e-006 +++to 9.49518e-006
Heightened Def Con from 9.49518e-006 +++++++to 9.49518e-006
Heightened Def Con from 9.49518e-006 to 9.49518e-006
Heightened Def Con from 9.49518e-006 +++to 9.49518e-006
Heightened Def Con from 9.49518e-006 +++++to 9.4952e-006
Heightened Def Con from 9.4952e-006 ++to 9.4952e-006
Heightened Def Con from 9.4952e-006 +to 9.4952e-006
Heightened Def Con from 9.4952e-006 to 9.4952e-006
Heightened Def Con from 9.4952e-006 +++++to 9.4952e-006
Heightened Def Con from 9.4952e-006 +++++++to 9.4952e-006
Heightened Def Con from 9.4952e-006 +to 9.49521e-006
Heightened Def Con from 9.49521e-006 +to 9.49521e-006
Heightened Def Con from 9.49521e-006 ++++to 9.49523e-006
Heightened Def Con from 9.49523e-006 to 9.49523e-006
Heightened Def Con from 9.49523e-006 +++to 9.49523e-006
Heightened Def Con from 9.49523e-006 +++++++to 9.49523e-006
Heightened Def Con from 9.49523e-006 to 9.49523e-006
Heightened Def Con from 9.49523e-006 ++to 9.49523e-006
Heightened Def Con from 9.49523e-006 ++to 9.49523e-006
Heightened Def Con from 9.49523e-006 ++++++++++to 9.49523e-006
Heightened Def Con from 9.49523e-006 ++to 9.49925e-006
Heightened Def Con from 9.50468e-006 to 9.5057e-006
Heightened Def Con from 9.50886e-006 to 9.50998e-006
Heightened Def Con from 9.50998e-006 ++to 9.514e-006
Heightened Def Con from 9.51571e-006 to 9.51871e-006
Heightened Def Con from 9.51984e-006 +to 9.51996e-006
Heightened Def Con from 9.52014e-006 to 9.52026e-006
Heightened Def Con from 9.52026e-006 ++++++++++++++to 9.52028e-006
Heightened Def Con from 9.52028e-006 ++++to 9.52029e-006
Heightened Def Con from 9.52029e-006 +to 9.52429e-006
Heightened Def Con from 9.52718e-006 to 9.52831e-006
Heightened Def Con from 9.52862e-006 to 9.53162e-006
Heightened Def Con from 9.53251e-006 to 9.53364e-006
Heightened Def Con from 9.54472e-006 to 9.54484e-006
Heightened Def Con from 9.54513e-006 to 9.54526e-006
Heightened Def Con from 9.54526e-006 to 9.54826e-006
Heightened Def Con from 9.55503e-006 to 9.55616e-006
Heightened Def Con from 9.55865e-006 to 9.55978e-006
Heightened Def Con from 9.55989e-006 +to 9.56389e-006
Heightened Def Con from 9.56445e-006 to 9.56745e-006
Heightened Def Con from 9.56989e-006 ++to 9.57002e-006
Heightened Def Con from 9.57019e-006 ++++++to 9.57032e-006
Heightened Def Con from 9.57032e-006 to 9.57144e-006
Heightened Def Con from 9.57728e-006 +to 9.5773e-006
Heightened Def Con from 9.57733e-006 to 9.57833e-006
Heightened Def Con from 9.57833e-006 to 9.58045e-006
Heightened Def Con from 9.5822e-006 to 9.58258e-006
Heightened Def Con from 9.58258e-006 to 9.58371e-006
Heightened Def Con from 9.59512e-006 +to 9.59512e-006
Heightened Def Con from 9.59512e-006 ++to 9.59512e-006
Heightened Def Con from 9.59512e-006 ++++to 9.59512e-006
Heightened Def Con from 9.59512e-006 to 9.59512e-006
Heightened Def Con from 9.59512e-006 ++++++++to 9.59512e-006
Heightened Def Con from 9.59512e-006 +++++++to 9.59512e-006
Heightened Def Con from 9.59512e-006 +++to 9.59512e-006
Heightened Def Con from 9.59512e-006 ++to 9.59512e-006
Heightened Def Con from 9.59512e-006 ++to 9.59512e-006
Heightened Def Con from 9.59512e-006 +++to 9.59512e-006
Heightened Def Con from 9.59512e-006 ++++to 9.59513e-006
Heightened Def Con from 9.59513e-006 ++++to 9.59514e-006
Heightened Def Con from 9.59514e-006 +++to 9.59516e-006
Heightened Def Con from 9.59516e-006 to 9.59628e-006
Heightened Def Con from 9.60492e-006 +++to 9.60505e-006
Heightened Def Con from 9.60505e-006 +to 9.60506e-006
Heightened Def Con from 9.60506e-006 to 9.60506e-006
Heightened Def Con from 9.60506e-006 to 9.60521e-006
Heightened Def Con from 9.60521e-006 to 9.60821e-006
Heightened Def Con from 9.60926e-006 to 9.60964e-006
Heightened Def Con from 9.60995e-006 +to 9.60999e-006
Heightened Def Con from 9.61e-006 +++++++to 9.61315e-006
Heightened Def Con from 9.61426e-006 to 9.61726e-006
Heightened Def Con from 9.61942e-006 to 9.61967e-006
Heightened Def Con from 9.61992e-006 +to 9.62005e-006
Heightened Def Con from 9.62021e-006 ++to 9.62021e-006
Heightened Def Con from 9.62021e-006 ++++++to 9.62023e-006
Heightened Def Con from 9.62023e-006 +++++++to 9.62023e-006
Heightened Def Con from 9.62023e-006 +++++to 9.62023e-006
Heightened Def Con from 9.62023e-006 +++++++to 9.62023e-006
Heightened Def Con from 9.62023e-006 +++++++++++++++to 9.62036e-006
Heightened Def Con from 9.62036e-006 ++++++++++++++++to 9.62048e-006
Heightened Def Con from 9.62048e-006 ++++++++++++++to 9.6205e-006
Heightened Def Con from 9.6205e-006 to 9.6205e-006
Heightened Def Con from 9.6205e-006 +++to 9.6205e-006
Heightened Def Con from 9.6205e-006 +++++++to 9.6205e-006
Heightened Def Con from 9.6205e-006 ++++++++++to 9.6205e-006
Heightened Def Con from 9.6205e-006 to 9.62052e-006
Heightened Def Con from 9.62052e-006 +to 9.62054e-006
Heightened Def Con from 9.62054e-006 ++++++++++++++to 9.62055e-006
Heightened Def Con from 9.62055e-006 ++++++++++++++to 9.62055e-006
Heightened Def Con from 9.62055e-006 ++++++++++++++to 9.62055e-006
Heightened Def Con from 9.62055e-006 +++++++++++++++to 9.62057e-006
Heightened Def Con from 9.62057e-006 ++++++++++++++++to 9.62058e-006
Heightened Def Con from 9.62058e-006 ++++++++++++++++to 9.6206e-006
Heightened Def Con from 9.6206e-006 ++++++++++++++++to 9.62061e-006
Heightened Def Con from 9.62061e-006 +++++++++++++++to 9.62063e-006
Heightened Def Con from 9.62063e-006 to 9.62065e-006
Heightened Def Con from 9.62065e-006 +to 9.62465e-006
Heightened Def Con from 9.62677e-006 to 9.62679e-006
Heightened Def Con from 9.62679e-006 to 9.62716e-006
Heightened Def Con from 9.62716e-006 ++to 9.62718e-006
Heightened Def Con from 9.62718e-006 to 9.62719e-006
Heightened Def Con from 9.62719e-006 ++to 9.62721e-006
Heightened Def Con from 9.62723e-006 to 9.62725e-006
Heightened Def Con from 9.62725e-006 to 9.62838e-006
Heightened Def Con from 9.62841e-006 to 9.63141e-006
Heightened Def Con from 9.63141e-006 to 9.63353e-006
Heightened Def Con from 9.64077e-006 to 9.64377e-006
Heightened Def Con from 9.64477e-006 ++to 9.64489e-006
Heightened Def Con from 9.64514e-006 to 9.64527e-006
Heightened Def Con from 9.64527e-006 to 9.64639e-006
Heightened Def Con from 9.65891e-006 to 9.65929e-006
Heightened Def Con from 9.65929e-006 to 9.65966e-006
Heightened Def Con from 9.65992e-006 ++++++++++++++to 9.66003e-006
Heightened Def Con from 9.66003e-006 +to 9.66403e-006
Heightened Def Con from 9.67014e-006 +++++to 9.67014e-006
Heightened Def Con from 9.67014e-006 ++to 9.67015e-006
Heightened Def Con from 9.67015e-006 ++++++++++++++++to 9.67115e-006
Heightened Def Con from 9.67127e-006 to 9.67129e-006
Heightened Def Con from 9.67129e-006 +++++to 9.6713e-006
Heightened Def Con from 9.6713e-006 to 9.67132e-006
Heightened Def Con from 9.67132e-006 +to 9.67444e-006
Heightened Def Con from 9.67814e-006 to 9.68114e-006
Heightened Def Con from 9.68214e-006 to 9.68252e-006
Heightened Def Con from 9.68277e-006 to 9.68389e-006
Heightened Def Con from 9.684e-006 to 9.689e-006
Heightened Def Con from 9.695e-006 +to 9.69502e-006
Heightened Def Con from 9.69502e-006 ++to 9.69514e-006
Heightened Def Con from 9.69514e-006 ++++++++++to 9.69514e-006
Heightened Def Con from 9.69514e-006 ++++++++to 9.69516e-006
Heightened Def Con from 9.69516e-006 +to 9.69516e-006
Heightened Def Con from 9.69516e-006 to 9.69516e-006
Heightened Def Con from 9.69516e-006 +++++to 9.69516e-006
Heightened Def Con from 9.69516e-006 ++++++++++++++++to 9.69517e-006
Heightened Def Con from 9.69517e-006 +++++to 9.69517e-006
Heightened Def Con from 9.69517e-006 +++++++++to 9.69519e-006
Heightened Def Con from 9.69519e-006 +++++++to 9.69519e-006
Heightened Def Con from 9.69519e-006 +++++++++++++to 9.69521e-006
Heightened Def Con from 9.69524e-006 to 9.69625e-006
Heightened Def Con from 9.69625e-006 to 9.69925e-006
Heightened Def Con from 9.70525e-006 to 9.70825e-006
Heightened Def Con from 9.72009e-006 ++++++to 9.72009e-006
Heightened Def Con from 9.72009e-006 ++to 9.72011e-006
Heightened Def Con from 9.72011e-006 to 9.72123e-006
Heightened Def Con from 9.72823e-006 to 9.73123e-006
Heightened Def Con from 9.73223e-006 to 9.73261e-006
Heightened Def Con from 9.74434e-006 ++to 9.74446e-006
Heightened Def Con from 9.74446e-006 +to 9.74459e-006
Heightened Def Con from 9.74497e-006 +to 9.74509e-006
Heightened Def Con from 9.74509e-006 ++to 9.74509e-006
Heightened Def Con from 9.74509e-006 +++++++++++++to 9.74511e-006
Heightened Def Con from 9.74511e-006 +++++++to 9.74511e-006
Heightened Def Con from 9.74511e-006 +to 9.74511e-006
Heightened Def Con from 9.74511e-006 ++++to 9.74511e-006
Heightened Def Con from 9.74511e-006 ++++++++to 9.74511e-006
Heightened Def Con from 9.74511e-006 ++to 9.74513e-006
Heightened Def Con from 9.74513e-006 +++to 9.74513e-006
Heightened Def Con from 9.74513e-006 ++++++++to 9.74513e-006
Heightened Def Con from 9.74513e-006 ++to 9.74513e-006
Heightened Def Con from 9.74513e-006 to 9.74515e-006
Heightened Def Con from 9.74515e-006 to 9.74627e-006
Heightened Def Con from 9.7463e-006 to 9.7493e-006
Heightened Def Con from 9.75474e-006 +to 9.75786e-006
Heightened Def Con from 9.75861e-006 +++++++to 9.75988e-006
Heightened Def Con from 9.76001e-006 to 9.76113e-006
Heightened Def Con from 9.77005e-006 +++++++++++++++to 9.77017e-006
Heightened Def Con from 9.77017e-006 +to 9.77417e-006
Heightened Def Con from 9.77742e-006 to 9.78042e-006
Heightened Def Con from 9.78142e-006 to 9.78344e-006
Heightened Def Con from 9.78348e-006 to 9.7866e-006
Heightened Def Con from 9.7866e-006 to 9.7896e-006
Heightened Def Con from 9.79473e-006 to 9.79485e-006
Heightened Def Con from 9.7951e-006 to 9.79523e-006
Heightened Def Con from 9.79523e-006 to 9.79523e-006
Heightened Def Con from 9.79523e-006 ++++to 9.79523e-006
Heightened Def Con from 9.79523e-006 ++to 9.79523e-006
Heightened Def Con from 9.79523e-006 ++to 9.79523e-006
Heightened Def Con from 9.79523e-006 +++to 9.79524e-006
Heightened Def Con from 9.79524e-006 +++++++++++++++++to 9.79637e-006
Heightened Def Con from 9.79723e-006 to 9.80023e-006
Heightened Def Con from 9.80458e-006 to 9.80459e-006
Heightened Def Con from 9.80459e-006 ++++++to 9.80486e-006
Heightened Def Con from 9.80486e-006 +to 9.80486e-006
Heightened Def Con from 9.80486e-006 +to 9.80487e-006
Heightened Def Con from 9.8049e-006 to 9.80492e-006
Heightened Def Con from 9.80492e-006 to 9.80493e-006
Heightened Def Con from 9.80493e-006 +to 9.80806e-006
Heightened Def Con from 9.80874e-006 ++to 9.81089e-006
Heightened Def Con from 9.81131e-006 to 9.81431e-006
Heightened Def Con from 9.81565e-006 to 9.81865e-006
Heightened Def Con from 9.8198e-006 +to 9.82005e-006
Heightened Def Con from 9.82026e-006 +++++++++to 9.82038e-006
Heightened Def Con from 9.82038e-006 ++++++to 9.82038e-006
Heightened Def Con from 9.82038e-006 +to 9.82152e-006
Heightened Def Con from 9.82727e-006 to 9.8274e-006
Heightened Def Con from 9.8274e-006 to 9.8304e-006
Heightened Def Con from 9.83083e-006 to 9.83121e-006
Heightened Def Con from 9.83146e-006 to 9.83348e-006
Heightened Def Con from 9.83348e-006 to 9.83948e-006
Heightened Def Con from 9.84449e-006 to 9.84449e-006
Heightened Def Con from 9.84449e-006 to 9.84474e-006
Heightened Def Con from 9.84499e-006 +to 9.84899e-006
Heightened Def Con from 9.85982e-006 to 9.86083e-006
Heightened Def Con from 9.86083e-006 to 9.86383e-006
Heightened Def Con from 9.86942e-006 to 9.86944e-006
Heightened Def Con from 9.86944e-006 to 9.86969e-006
Heightened Def Con from 9.86994e-006 to 9.87006e-006
Heightened Def Con from 9.87006e-006 +to 9.87019e-006
Heightened Def Con from 9.87019e-006 +to 9.87019e-006
Heightened Def Con from 9.87019e-006 to 9.87131e-006
Heightened Def Con from 9.87722e-006 +to 9.88047e-006
Heightened Def Con from 9.88085e-006 ++to 9.88247e-006
Heightened Def Con from 9.88256e-006 +to 9.88569e-006
Heightened Def Con from 9.8954e-006 to 9.8984e-006
Heightened Def Con from 9.90504e-006 to 9.90616e-006
Heightened Def Con from 9.91001e-006 to 9.91114e-006
Heightened Def Con from 9.91304e-006 to 9.91704e-006
Heightened Def Con from 9.92004e-006 +to 9.92017e-006
Heightened Def Con from 9.92017e-006 to 9.92017e-006
Heightened Def Con from 9.92017e-006 +to 9.92018e-006
Heightened Def Con from 9.92018e-006 +to 9.92331e-006
Heightened Def Con from 9.92724e-006 to 9.92727e-006
Heightened Def Con from 9.92727e-006 to 9.92829e-006
Heightened Def Con from 9.92829e-006 to 9.93129e-006
Heightened Def Con from 9.93235e-006 +to 9.93635e-006
Heightened Def Con from 9.93637e-006 to 9.93937e-006
Heightened Def Con from 9.94437e-006 to 9.94637e-006
Heightened Def Con from 9.95506e-006 to 9.95618e-006
Heightened Def Con from 9.95885e-006 to 9.95997e-006
Heightened Def Con from 9.95999e-006 +++to 9.96014e-006
Heightened Def Con from 9.96014e-006 to 9.96314e-006
Heightened Def Con from 9.96427e-006 to 9.96727e-006
Heightened Def Con from 9.97027e-006 +++++++++++++++to 9.97028e-006
Heightened Def Con from 9.97028e-006 +to 9.97428e-006
Heightened Def Con from 9.97721e-006 +to 9.98034e-006
Heightened Def Con from 9.98059e-006 +to 9.98196e-006
Heightened Def Con from 9.9824e-006 +to 9.98354e-006
Heightened Def Con from 9.99517e-006 +++++to 9.99517e-006
Heightened Def Con from 9.99517e-006 ++++++++++to 9.99517e-006
Heightened Def Con from 9.99517e-006 +++to 9.99517e-006
Heightened Def Con from 9.99517e-006 ++++to 9.99517e-006
Heightened Def Con from 9.99517e-006 ++to 9.99517e-006
Heightened Def Con from 9.99517e-006 +++++++to 9.99517e-006
Heightened Def Con from 9.99517e-006 +++++++++++++++++to 9.99519e-006
Heightened Def Con from 9.99519e-006 +++++++++++++++++to 9.99519e-006
Heightened Def Con from 9.99519e-006 +++++++++++++++++to 9.99519e-006
Heightened Def Con from 9.99519e-006 ++++++++++++++++++to 9.9952e-006
Heightened Def Con from 9.99523e-006 to 9.99823e-006
Heightened Def Con from 9.9984e-006 to 9.99947e-006
Heightened Def Con from 9.99992e-006 to 1e-005

Date: Tue Nov 05 13:58:20 2024
Total elapsed time: 21.864 seconds.

tnom = 27
temp = 27
method = modified trap
totiter = 1927937
traniter = 1924890
tranpoints = 185017
accept = 35367
rejected = 163990
matrix size = 191
fillins = 521
solver = Normal
Thread vector: 4.8/3.6[5] 2.7/2.5[1] 2.3/1.7[5] 0.4/1.2[1]  2592/500
Matrix Compiler1: 53.87 KB object code size  5.3/2.2/[2.0]
Matrix Compiler2: 25.23 KB object code size  1.2/1.3/[0.8]

