Circuit: * Z:\home\ostoja\Elektronika\LNWB_BJT\LNWBA_bjt.asc

Direct Newton iteration failed to find .op point.  (Use ".option noopiter" to skip.)
Starting Gmin stepping
Gmin = 10
Gmin = 1.07374
Gmin = 0.115292
Gmin = 0.0123794
Gmin = 0.00132923
Gmin = 0.000142725
Gmin = 1.5325e-005
Gmin = 1.6455e-006
Gmin = 1.76685e-007
Gmin = 1.89714e-008
Gmin = 2.03704e-009
Gmin = 2.18725e-010
Gmin = 2.34854e-011
Gmin = 2.52173e-012
Gmin = 2.70769e-013
Gmin = 0
Gmin stepping succeeded in finding the operating point.

Heightened Def Con from 2.48619e-006 to 2.48819e-006
Heightened Def Con from 9.53587e-006 to 9.53787e-006
Heightened Def Con from 9.88853e-006 to 9.89153e-006
Heightened Def Con from 1.20878e-005 to 1.20908e-005
Heightened Def Con from 1.33384e-005 to 1.33414e-005
Heightened Def Con from 1.41895e-005 to 1.41925e-005
Heightened Def Con from 1.6336e-005 to 1.6338e-005
Heightened Def Con from 2.11134e-005 to 2.11164e-005
Heightened Def Con from 2.12861e-005 to 2.12881e-005
Heightened Def Con from 2.50635e-005 to 2.50665e-005
Heightened Def Con from 2.57611e-005 to 2.57611e-005

Date: Sat Nov 23 11:45:13 2024
Total elapsed time: 3.787 seconds.

tnom = 27
temp = 27
method = modified trap
totiter = 534752
traniter = 534160
tranpoints = 101105
accept = 66892
rejected = 34224
matrix size = 98
fillins = 204
solver = Normal
Thread vector: 4.3/3.7[2] 1.7/2.3[1] 1.2/1.5[1] 0.2/0.9[1]  2592/500
Matrix Compiler1:    1189 opcodes  2.3/[1.0]/1.2
Matrix Compiler2: 12.24 KB object code size  0.7/0.8/[0.6]

